SER
 OpenBabel04091914463D

 14 13  0  0  1  0  0  0  0  0999 V2000
   -2.6065  -15.9174  -11.7935 N   0  3  0  0  0  0  0  0  0  0  0  0
   -2.8710  -16.3845  -10.3712 C   0  0  2  0  0  0  0  0  0  0  0  0
   -4.1434  -17.2475  -10.2493 C   0  0  0  0  0  0  0  0  0  0  0  0
   -4.7310  -17.3622  -11.3782 O   0  0  0  0  0  0  0  0  0  0  0  0
   -2.9686  -15.1613   -9.4438 C   0  0  0  0  0  0  0  0  0  0  0  0
   -4.0317  -14.3065   -9.8497 O   0  0  0  0  0  0  0  0  0  0  0  0
   -4.3711  -17.7608   -9.1329 O   0  0  0  0  0  0  0  0  0  0  0  0
   -1.7778  -15.3345  -11.9022 H   0  0  0  0  0  0  0  0  0  0  0  0
   -2.6031  -16.7531  -12.3911 H   0  0  0  0  0  0  0  0  0  0  0  0
   -2.0037  -17.0070  -10.1064 H   0  0  0  0  0  0  0  0  0  0  0  0
   -2.0512  -14.5786   -9.5412 H   0  0  0  0  0  0  0  0  0  0  0  0
   -3.0666  -15.4782   -8.4063 H   0  0  0  0  0  0  0  0  0  0  0  0
   -4.1544  -13.6719   -9.1211 H   0  0  0  0  0  0  0  0  0  0  0  0
   -3.4714  -15.4205  -12.0648 H   0  0  0  0  0  0  0  0  0  0  0  0
  1  2  1  0  0  0  0
  1  8  1  0  0  0  0
  1  9  1  0  0  0  0
  1 14  1  0  0  0  0
  2  3  1  0  0  0  0
  2  5  1  0  0  0  0
  2 10  1  1  0  0  0
  3  4  2  0  0  0  0
  3  7  1  0  0  0  0
  5  6  1  0  0  0  0
  5 11  1  0  0  0  0
  5 12  1  0  0  0  0
  6 13  1  0  0  0  0
M  CHG  1   1   1
M  END
$$$$
