SG5
 OpenBabel04091915413D

 51 51  0  0  1  0  0  0  0  0999 V2000
   17.3625    0.2631   12.0312 C   0  0  0  0  0  0  0  0  0  0  0  0
   17.0239    0.3295   13.3449 O   0  0  0  0  0  0  0  0  0  0  0  0
   16.5194    1.2487   11.2314 C   0  0  1  0  0  0  0  0  0  0  0  0
   17.1114    2.6179   11.6354 C   0  0  2  0  0  0  0  0  0  0  0  0
   17.1566    2.7713   13.1958 C   0  0  1  0  0  0  0  0  0  0  0  0
   17.6934    1.4864   13.8768 C   0  0  1  0  0  0  0  0  0  0  0  0
   18.3427   -0.3535   11.6315 O   0  0  0  0  0  0  0  0  0  0  0  0
   16.6962    0.9790    9.8315 O   0  0  0  0  0  0  0  0  0  0  0  0
   15.6469    1.3146    9.0360 C   0  0  0  0  0  0  0  0  0  0  0  0
   14.6264    1.8656    9.4237 O   0  0  0  0  0  0  0  0  0  0  0  0
   15.8962    0.9192    7.6006 C   0  0  0  0  0  0  0  0  0  0  0  0
   15.9533    2.1460    6.7148 C   0  0  0  0  0  0  0  0  0  0  0  0
   16.3129    3.7093   11.0937 O   0  0  0  0  0  0  0  0  0  0  0  0
   16.8930    4.4729   10.1331 C   0  0  0  0  0  0  0  0  0  0  0  0
   18.0303    4.2973    9.7104 O   0  0  0  0  0  0  0  0  0  0  0  0
   15.9879    5.5854    9.6597 C   0  0  0  0  0  0  0  0  0  0  0  0
   16.4703    6.2280    8.3702 C   0  0  0  0  0  0  0  0  0  0  0  0
   18.0047    3.8947   13.5856 O   0  0  0  0  0  0  0  0  0  0  0  0
   17.3476    5.0591   13.8634 C   0  0  0  0  0  0  0  0  0  0  0  0
   16.1335    5.1881   13.8112 O   0  0  0  0  0  0  0  0  0  0  0  0
   18.2508    6.1843   14.3230 C   0  0  0  0  0  0  0  0  0  0  0  0
   19.3513    6.5409   13.3474 C   0  0  0  0  0  0  0  0  0  0  0  0
   17.5206    1.5307   15.3935 C   0  0  0  0  0  0  0  0  0  0  0  0
   16.1671    1.8414   15.6959 O   0  0  0  0  0  0  0  0  0  0  0  0
   15.4840    1.1672   16.9906 S   0  0  0  0  0  0  0  0  0  0  0  0
   14.0724    1.4192   16.9557 O   0  0  0  0  0  0  0  0  0  0  0  0
   16.2977    1.4630   18.1449 O   0  0  0  0  0  0  0  0  0  0  0  0
   15.6613   -0.4656   16.6817 N   0  0  0  0  0  0  0  0  0  0  0  0
   15.4701    1.1072   11.5235 H   0  0  0  0  0  0  0  0  0  0  0  0
   18.1328    2.6782   11.2637 H   0  0  0  0  0  0  0  0  0  0  0  0
   16.1283    2.9365   13.5402 H   0  0  0  0  0  0  0  0  0  0  0  0
   18.7629    1.3412   13.7035 H   0  0  0  0  0  0  0  0  0  0  0  0
   15.0874    0.2532    7.2829 H   0  0  0  0  0  0  0  0  0  0  0  0
   16.8306    0.3518    7.5169 H   0  0  0  0  0  0  0  0  0  0  0  0
   16.1202    1.8512    5.6747 H   0  0  0  0  0  0  0  0  0  0  0  0
   16.7628    2.8142    7.0217 H   0  0  0  0  0  0  0  0  0  0  0  0
   15.0150    2.7090    6.7652 H   0  0  0  0  0  0  0  0  0  0  0  0
   15.9397    6.3417   10.4493 H   0  0  0  0  0  0  0  0  0  0  0  0
   14.9755    5.1672    9.4930 H   0  0  0  0  0  0  0  0  0  0  0  0
   15.7762    7.0090    8.0493 H   0  0  0  0  0  0  0  0  0  0  0  0
   16.5524    5.4920    7.5602 H   0  0  0  0  0  0  0  0  0  0  0  0
   17.4594    6.6899    8.4937 H   0  0  0  0  0  0  0  0  0  0  0  0
   18.6602    5.9591   15.3130 H   0  0  0  0  0  0  0  0  0  0  0  0
   17.6114    7.0700   14.4404 H   0  0  0  0  0  0  0  0  0  0  0  0
   19.9028    7.4164   13.7102 H   0  0  0  0  0  0  0  0  0  0  0  0
   18.9417    6.7860   12.3621 H   0  0  0  0  0  0  0  0  0  0  0  0
   20.0596    5.7167   13.2319 H   0  0  0  0  0  0  0  0  0  0  0  0
   18.1721    2.2940   15.8304 H   0  0  0  0  0  0  0  0  0  0  0  0
   17.8122    0.5661   15.8290 H   0  0  0  0  0  0  0  0  0  0  0  0
   15.4691   -1.0797   17.4633 H   0  0  0  0  0  0  0  0  0  0  0  0
   16.2765   -0.7597   15.9335 H   0  0  0  0  0  0  0  0  0  0  0  0
  1  2  1  0  0  0  0
  1  3  1  0  0  0  0
  1  7  2  0  0  0  0
  2  6  1  0  0  0  0
  3  4  1  0  0  0  0
  3  8  1  0  0  0  0
  3 29  1  1  0  0  0
  4  5  1  0  0  0  0
  4 13  1  0  0  0  0
  4 30  1  6  0  0  0
  5  6  1  0  0  0  0
  5 18  1  0  0  0  0
  5 31  1  1  0  0  0
  6 23  1  0  0  0  0
  6 32  1  6  0  0  0
  8  9  1  0  0  0  0
  9 10  2  0  0  0  0
  9 11  1  0  0  0  0
 11 12  1  0  0  0  0
 11 33  1  0  0  0  0
 11 34  1  0  0  0  0
 12 35  1  0  0  0  0
 12 36  1  0  0  0  0
 12 37  1  0  0  0  0
 13 14  1  0  0  0  0
 14 15  2  0  0  0  0
 14 16  1  0  0  0  0
 16 17  1  0  0  0  0
 16 38  1  0  0  0  0
 16 39  1  0  0  0  0
 17 40  1  0  0  0  0
 17 41  1  0  0  0  0
 17 42  1  0  0  0  0
 18 19  1  0  0  0  0
 19 20  2  0  0  0  0
 19 21  1  0  0  0  0
 21 22  1  0  0  0  0
 21 43  1  0  0  0  0
 21 44  1  0  0  0  0
 22 45  1  0  0  0  0
 22 46  1  0  0  0  0
 22 47  1  0  0  0  0
 23 24  1  0  0  0  0
 23 48  1  0  0  0  0
 23 49  1  0  0  0  0
 24 25  1  0  0  0  0
 25 26  2  0  0  0  0
 25 27  2  0  0  0  0
 25 28  1  0  0  0  0
 28 50  1  0  0  0  0
 28 51  1  0  0  0  0
M  END
$$$$
