SG6
 OpenBabel04091915413D

 34 34  0  0  1  0  0  0  0  0999 V2000
   16.7932   -0.9511   11.7724 C   0  0  1  0  0  0  0  0  0  0  0  0
   16.7514   -0.6666   13.1673 O   0  0  0  0  0  0  0  0  0  0  0  0
   16.1980    0.2232   10.9811 C   0  0  1  0  0  0  0  0  0  0  0  0
   17.0228    1.4785   11.2476 C   0  0  2  0  0  0  0  0  0  0  0  0
   17.1116    1.7899   12.7494 C   0  0  2  0  0  0  0  0  0  0  0  0
   17.5150    0.5083   13.5283 C   0  0  1  0  0  0  0  0  0  0  0  0
   18.1395   -1.2161   11.3898 O   0  0  0  0  0  0  0  0  0  0  0  0
   16.1778   -0.0528    9.5722 O   0  0  0  0  0  0  0  0  0  0  0  0
   16.4809    2.5810   10.5067 O   0  0  0  0  0  0  0  0  0  0  0  0
   15.8861    2.3915   13.2250 O   0  0  0  0  0  0  0  0  0  0  0  0
   14.8177    4.0429   14.5877 C   0  0  0  0  0  0  0  0  0  0  0  0
   16.0831    3.4629   14.0696 C   0  0  0  0  0  0  0  0  0  0  0  0
   17.1944    3.8729   14.4175 O   0  0  0  0  0  0  0  0  0  0  0  0
   17.4495    0.6419   15.0543 C   0  0  0  0  0  0  0  0  0  0  0  0
   16.1211    0.9098   15.4608 O   0  0  0  0  0  0  0  0  0  0  0  0
   15.4844    0.1511   16.7456 S   0  0  0  0  0  0  0  0  0  0  0  0
   14.0687    0.4013   16.7516 O   0  0  0  0  0  0  0  0  0  0  0  0
   16.3043    0.4363   17.8942 O   0  0  0  0  0  0  0  0  0  0  0  0
   15.6601   -1.4596   16.3805 N   0  0  0  0  0  0  0  0  0  0  0  0
   16.2053   -1.8521   11.5653 H   0  0  0  0  0  0  0  0  0  0  0  0
   15.1618    0.3854   11.2997 H   0  0  0  0  0  0  0  0  0  0  0  0
   18.0451    1.3355   10.8733 H   0  0  0  0  0  0  0  0  0  0  0  0
   17.9282    2.5111   12.8528 H   0  0  0  0  0  0  0  0  0  0  0  0
   18.5603    0.2931   13.2766 H   0  0  0  0  0  0  0  0  0  0  0  0
   18.3111   -2.1390   11.6406 H   0  0  0  0  0  0  0  0  0  0  0  0
   15.6035    0.6177    9.1667 H   0  0  0  0  0  0  0  0  0  0  0  0
   16.6093    2.3611    9.5670 H   0  0  0  0  0  0  0  0  0  0  0  0
   15.0724    4.9200   15.2028 H   0  0  0  0  0  0  0  0  0  0  0  0
   14.3014    3.3259   15.2315 H   0  0  0  0  0  0  0  0  0  0  0  0
   14.1719    4.3864   13.7766 H   0  0  0  0  0  0  0  0  0  0  0  0
   18.1089    1.4403   15.3986 H   0  0  0  0  0  0  0  0  0  0  0  0
   17.8144   -0.2930   15.4929 H   0  0  0  0  0  0  0  0  0  0  0  0
   15.3185   -2.0867   17.1056 H   0  0  0  0  0  0  0  0  0  0  0  0
   16.4912   -1.7398   15.8738 H   0  0  0  0  0  0  0  0  0  0  0  0
  1  2  1  0  0  0  0
  1  3  1  0  0  0  0
  1  7  1  0  0  0  0
  1 20  1  6  0  0  0
  2  6  1  0  0  0  0
  3  4  1  0  0  0  0
  3  8  1  0  0  0  0
  3 21  1  1  0  0  0
  4  5  1  0  0  0  0
  4  9  1  0  0  0  0
  4 22  1  6  0  0  0
  5  6  1  0  0  0  0
  5 10  1  0  0  0  0
  5 23  1  1  0  0  0
  6 14  1  0  0  0  0
  6 24  1  6  0  0  0
  7 25  1  0  0  0  0
  8 26  1  0  0  0  0
  9 27  1  0  0  0  0
 10 12  1  0  0  0  0
 11 12  1  0  0  0  0
 11 28  1  0  0  0  0
 11 29  1  0  0  0  0
 11 30  1  0  0  0  0
 12 13  2  0  0  0  0
 14 15  1  0  0  0  0
 14 31  1  0  0  0  0
 14 32  1  0  0  0  0
 15 16  1  0  0  0  0
 16 17  2  0  0  0  0
 16 18  2  0  0  0  0
 16 19  1  0  0  0  0
 19 33  1  0  0  0  0
 19 34  1  0  0  0  0
M  END
$$$$
