SG7
 OpenBabel04091915423D

 39 39  0  0  1  0  0  0  0  0999 V2000
   16.9026    1.9063   11.6013 C   0  0  1  0  0  0  0  0  0  0  0  0
   16.8427    2.0609   12.9969 O   0  0  0  0  0  0  0  0  0  0  0  0
   16.5340    3.1628   10.8173 C   0  0  2  0  0  0  0  0  0  0  0  0
   17.0265    4.4735   11.4407 C   0  0  2  0  0  0  0  0  0  0  0  0
   16.8418    4.5060   12.9560 C   0  0  1  0  0  0  0  0  0  0  0  0
   17.4800    3.2313   13.5071 C   0  0  1  0  0  0  0  0  0  0  0  0
   18.1935    1.4540   11.2504 O   0  0  0  0  0  0  0  0  0  0  0  0
   15.1069    3.2125   10.7197 O   0  0  0  0  0  0  0  0  0  0  0  0
   16.2691    5.5635   10.8700 O   0  0  0  0  0  0  0  0  0  0  0  0
   16.9514    6.3589   10.0310 C   0  0  0  0  0  0  0  0  0  0  0  0
   16.1794    7.5434    9.5800 C   0  0  0  0  0  0  0  0  0  0  0  0
   18.1155    6.1656    9.7061 O   0  0  0  0  0  0  0  0  0  0  0  0
   17.6062    5.6341   13.4610 O   0  0  0  0  0  0  0  0  0  0  0  0
   17.8239    7.8530   14.2592 C   0  0  0  0  0  0  0  0  0  0  0  0
   16.9235    6.7615   13.7774 C   0  0  0  0  0  0  0  0  0  0  0  0
   15.7053    6.8919   13.6583 O   0  0  0  0  0  0  0  0  0  0  0  0
   17.4305    3.0056   15.0048 C   0  0  0  0  0  0  0  0  0  0  0  0
   16.2268    3.5241   15.5319 O   0  0  0  0  0  0  0  0  0  0  0  0
   15.4472    2.7598   16.7257 S   0  0  0  0  0  0  0  0  0  0  0  0
   14.0312    2.9546   16.5598 O   0  0  0  0  0  0  0  0  0  0  0  0
   16.1154    3.1216   17.9714 O   0  0  0  0  0  0  0  0  0  0  0  0
   15.7178    1.1159   16.5156 N   0  0  0  0  0  0  0  0  0  0  0  0
   16.1666    1.1329   11.3644 H   0  0  0  0  0  0  0  0  0  0  0  0
   16.9482    3.0852    9.8069 H   0  0  0  0  0  0  0  0  0  0  0  0
   18.1157    4.5450   11.2397 H   0  0  0  0  0  0  0  0  0  0  0  0
   15.7606    4.5727   13.1542 H   0  0  0  0  0  0  0  0  0  0  0  0
   18.5407    3.2447   13.2330 H   0  0  0  0  0  0  0  0  0  0  0  0
   18.2491    0.5605   11.6302 H   0  0  0  0  0  0  0  0  0  0  0  0
   14.9059    4.0130   10.2040 H   0  0  0  0  0  0  0  0  0  0  0  0
   16.8423    8.1088    8.9240 H   0  0  0  0  0  0  0  0  0  0  0  0
   15.9078    8.1705   10.4360 H   0  0  0  0  0  0  0  0  0  0  0  0
   15.3012    7.2211    9.0137 H   0  0  0  0  0  0  0  0  0  0  0  0
   17.1967    8.6640   14.6545 H   0  0  0  0  0  0  0  0  0  0  0  0
   18.4335    8.2433   13.4496 H   0  0  0  0  0  0  0  0  0  0  0  0
   18.4427    7.4970   15.0799 H   0  0  0  0  0  0  0  0  0  0  0  0
   18.3250    3.3914   15.5050 H   0  0  0  0  0  0  0  0  0  0  0  0
   17.4643    1.9239   15.1299 H   0  0  0  0  0  0  0  0  0  0  0  0
   15.2117    0.5229   17.1690 H   0  0  0  0  0  0  0  0  0  0  0  0
   16.6376    0.7762   16.2527 H   0  0  0  0  0  0  0  0  0  0  0  0
  1  2  1  0  0  0  0
  1  3  1  0  0  0  0
  1  7  1  0  0  0  0
  1 23  1  6  0  0  0
  2  6  1  0  0  0  0
  3  4  1  0  0  0  0
  3  8  1  0  0  0  0
  3 24  1  6  0  0  0
  4  5  1  0  0  0  0
  4  9  1  0  0  0  0
  4 25  1  6  0  0  0
  5  6  1  0  0  0  0
  5 13  1  0  0  0  0
  5 26  1  1  0  0  0
  6 17  1  0  0  0  0
  6 27  1  6  0  0  0
  7 28  1  0  0  0  0
  8 29  1  0  0  0  0
  9 10  1  0  0  0  0
 10 11  1  0  0  0  0
 10 12  2  0  0  0  0
 11 30  1  0  0  0  0
 11 31  1  0  0  0  0
 11 32  1  0  0  0  0
 13 15  1  0  0  0  0
 14 15  1  0  0  0  0
 14 33  1  0  0  0  0
 14 34  1  0  0  0  0
 14 35  1  0  0  0  0
 15 16  2  0  0  0  0
 17 18  1  0  0  0  0
 17 36  1  0  0  0  0
 17 37  1  0  0  0  0
 18 19  1  0  0  0  0
 19 20  2  0  0  0  0
 19 21  2  0  0  0  0
 19 22  1  0  0  0  0
 22 38  1  0  0  0  0
 22 39  1  0  0  0  0
M  END
$$$$
