SLB
 OpenBabel04091910573D

 39 39  0  0  1  0  0  0  0  0999 V2000
    7.7235   -9.5404  -11.0985 C   0  0  0  0  0  0  0  0  0  0  0  0
    9.0433   -9.2335  -11.9374 C   0  0  1  0  0  0  0  0  0  0  0  0
   10.1587   -8.7611  -11.0143 C   0  0  0  0  0  0  0  0  0  0  0  0
   11.3422   -8.2835  -11.8408 C   0  0  1  0  0  0  0  0  0  0  0  0
   10.8684   -7.1903  -12.8271 C   0  0  2  0  0  0  0  0  0  0  0  0
    9.7464   -7.7771  -13.7007 C   0  0  2  0  0  0  0  0  0  0  0  0
    9.1141   -6.7740  -14.6673 C   0  0  1  0  0  0  0  0  0  0  0  0
    7.9531   -7.4265  -15.4503 C   0  0  1  0  0  0  0  0  0  0  0  0
    7.3698   -6.4661  -16.4910 C   0  0  0  0  0  0  0  0  0  0  0  0
   12.4874   -5.4685  -13.5007 C   0  0  0  0  0  0  0  0  0  0  0  0
   13.5809   -5.1523  -14.4955 C   0  0  0  0  0  0  0  0  0  0  0  0
   11.9866   -6.7187  -13.6522 N   0  0  0  0  0  0  0  0  0  0  0  0
    7.3453  -10.7490  -11.1245 O   0  0  0  0  0  0  0  0  0  0  0  0
    7.1599   -8.5275  -10.5862 O   0  0  0  0  0  0  0  0  0  0  0  0
    9.4971  -10.3715  -12.6969 O   0  0  0  0  0  0  0  0  0  0  0  0
   12.3706   -7.8143  -10.9607 O   0  0  0  0  0  0  0  0  0  0  0  0
    8.6826   -8.2203  -12.8744 O   0  0  0  0  0  0  0  0  0  0  0  0
    8.6058   -5.6367  -13.9589 O   0  0  0  0  0  0  0  0  0  0  0  0
    8.3582   -8.6356  -16.1073 O   0  0  0  0  0  0  0  0  0  0  0  0
    8.3588   -6.0021  -17.4156 O   0  0  0  0  0  0  0  0  0  0  0  0
   12.1535   -4.6625  -12.6428 O   0  0  0  0  0  0  0  0  0  0  0  0
   10.4909   -9.5551  -10.3360 H   0  0  0  0  0  0  0  0  0  0  0  0
    9.8199   -7.9299  -10.3827 H   0  0  0  0  0  0  0  0  0  0  0  0
   11.7778   -9.1163  -12.4090 H   0  0  0  0  0  0  0  0  0  0  0  0
   10.4704   -6.3558  -12.2370 H   0  0  0  0  0  0  0  0  0  0  0  0
   10.1411   -8.6256  -14.2773 H   0  0  0  0  0  0  0  0  0  0  0  0
    9.8854   -6.4305  -15.3615 H   0  0  0  0  0  0  0  0  0  0  0  0
    7.1389   -7.6842  -14.7605 H   0  0  0  0  0  0  0  0  0  0  0  0
    6.9332   -5.5927  -15.9999 H   0  0  0  0  0  0  0  0  0  0  0  0
    6.5885   -6.9736  -17.0648 H   0  0  0  0  0  0  0  0  0  0  0  0
   13.9434   -4.1280  -14.3139 H   0  0  0  0  0  0  0  0  0  0  0  0
   13.1821   -5.2053  -15.5072 H   0  0  0  0  0  0  0  0  0  0  0  0
   14.3982   -5.8450  -14.3637 H   0  0  0  0  0  0  0  0  0  0  0  0
   12.3262   -7.3377  -14.3781 H   0  0  0  0  0  0  0  0  0  0  0  0
    8.6570  -10.7206  -13.0550 H   0  0  0  0  0  0  0  0  0  0  0  0
   13.0784   -7.4490  -11.5171 H   0  0  0  0  0  0  0  0  0  0  0  0
    7.9753   -5.9894  -13.2952 H   0  0  0  0  0  0  0  0  0  0  0  0
    9.1102   -8.4301  -16.6802 H   0  0  0  0  0  0  0  0  0  0  0  0
    8.6852   -6.7669  -17.9131 H   0  0  0  0  0  0  0  0  0  0  0  0
  1 13  2  0  0  0  0
  1 14  1  0  0  0  0
  2  1  1  1  0  0  0
  2  3  1  0  0  0  0
  2 15  1  0  0  0  0
  2 17  1  0  0  0  0
  3  4  1  0  0  0  0
  3 22  1  0  0  0  0
  3 23  1  0  0  0  0
  4  5  1  0  0  0  0
  4 16  1  0  0  0  0
  4 24  1  6  0  0  0
  5  6  1  0  0  0  0
  5 12  1  0  0  0  0
  5 25  1  1  0  0  0
  6  7  1  0  0  0  0
  6 17  1  0  0  0  0
  6 26  1  6  0  0  0
  7  8  1  0  0  0  0
  7 18  1  0  0  0  0
  7 27  1  6  0  0  0
  8  9  1  0  0  0  0
  8 19  1  0  0  0  0
  8 28  1  1  0  0  0
  9 20  1  0  0  0  0
  9 29  1  0  0  0  0
  9 30  1  0  0  0  0
 10 11  1  0  0  0  0
 10 12  1  0  0  0  0
 10 21  2  0  0  0  0
 11 31  1  0  0  0  0
 11 32  1  0  0  0  0
 11 33  1  0  0  0  0
 12 34  1  0  0  0  0
 15 35  1  0  0  0  0
 16 36  1  0  0  0  0
 18 37  1  0  0  0  0
 19 38  1  0  0  0  0
 20 39  1  0  0  0  0
M  END
$$$$
