SNX
 OpenBabel04091911193D

 51 54  0  0  1  0  0  0  0  0999 V2000
   -1.9654  -10.7149  -25.7201 O   0  0  0  0  0  0  0  0  0  0  0  0
   -1.5125  -11.3348  -24.7671 C   0  0  0  0  0  0  0  0  0  0  0  0
   -2.3867  -11.8815  -23.8576 N   0  0  0  0  0  0  0  0  0  0  0  0
   -0.0441  -11.5172  -24.5261 C   0  0  0  0  0  0  0  0  0  0  0  0
    0.3906  -12.5828  -23.7086 C   0  0  0  0  0  0  0  0  0  0  0  0
    1.7481  -12.8322  -23.5141 C   0  0  0  0  0  0  0  0  0  0  0  0
    0.9045  -10.6677  -25.1556 C   0  0  0  0  0  0  0  0  0  0  0  0
    0.5357   -9.7035  -26.0876 N   0  0  0  0  0  0  0  0  0  0  0  0
    1.4777   -8.7721  -26.6952 C   0  0  0  0  0  0  0  0  0  0  0  0
    0.7686   -7.7336  -27.5689 C   0  0  0  0  0  0  0  0  0  0  0  0
   -0.1868   -7.0233  -26.7764 O   0  0  0  0  0  0  0  0  0  0  0  0
   -0.1288   -5.6224  -26.9776 C   0  0  0  0  0  0  0  0  0  0  0  0
    2.2638  -10.9206  -24.9140 C   0  0  0  0  0  0  0  0  0  0  0  0
    2.6752  -11.9896  -24.1189 C   0  0  0  0  0  0  0  0  0  0  0  0
    4.0529  -12.2850  -24.0666 N   0  3  0  0  0  0  0  0  0  0  0  0
    5.0552  -11.4289  -23.6229 C   0  0  1  0  0  0  0  0  0  0  0  0
    4.9881  -10.1633  -23.0094 C   0  0  0  0  0  0  0  0  0  0  0  0
    6.1809   -9.5514  -22.6115 C   0  0  0  0  0  0  0  0  0  0  0  0
    7.4075  -10.1715  -22.8258 C   0  0  0  0  0  0  0  0  0  0  0  0
    7.4686  -11.4231  -23.4439 C   0  0  0  0  0  0  0  0  0  0  0  0
    4.6264  -13.4338  -24.5741 C   0  0  1  0  0  0  0  0  0  0  0  0
    3.8919  -14.5574  -25.2319 C   0  0  0  0  0  0  0  0  0  0  0  0
    4.8624  -15.4587  -26.0089 C   0  0  0  0  0  0  0  0  0  0  0  0
    6.1963  -15.6853  -25.2855 C   0  0  0  0  0  0  0  0  0  0  0  0
    6.8828  -14.3726  -24.9291 C   0  0  0  0  0  0  0  0  0  0  0  0
    8.1028  -14.2556  -24.9658 O   0  0  0  0  0  0  0  0  0  0  0  0
    5.9967  -13.3228  -24.4516 C   0  0  1  0  0  0  0  0  0  0  0  0
    6.2836  -12.0709  -23.8418 C   0  0  1  0  0  0  0  0  0  0  0  0
   -2.1163  -12.2249  -22.9487 H   0  0  0  0  0  0  0  0  0  0  0  0
   -3.3692  -11.6911  -24.0165 H   0  0  0  0  0  0  0  0  0  0  0  0
   -0.3188  -13.2678  -23.2500 H   0  0  0  0  0  0  0  0  0  0  0  0
    2.0649  -13.6700  -22.8997 H   0  0  0  0  0  0  0  0  0  0  0  0
   -0.4521   -9.4255  -26.0901 H   0  0  0  0  0  0  0  0  0  0  0  0
    2.1818   -9.3278  -27.3245 H   0  0  0  0  0  0  0  0  0  0  0  0
    2.0393   -8.2447  -25.9159 H   0  0  0  0  0  0  0  0  0  0  0  0
    0.2387   -8.2201  -28.3941 H   0  0  0  0  0  0  0  0  0  0  0  0
    1.5218   -7.0589  -27.9925 H   0  0  0  0  0  0  0  0  0  0  0  0
   -0.9110   -5.1572  -26.3735 H   0  0  0  0  0  0  0  0  0  0  0  0
   -0.2982   -5.3731  -28.0299 H   0  0  0  0  0  0  0  0  0  0  0  0
    0.8407   -5.2361  -26.6476 H   0  0  0  0  0  0  0  0  0  0  0  0
    3.0274  -10.3294  -25.4139 H   0  0  0  0  0  0  0  0  0  0  0  0
    4.0360   -9.6773  -22.8202 H   0  0  0  0  0  0  0  0  0  0  0  0
    6.1488   -8.5808  -22.1236 H   0  0  0  0  0  0  0  0  0  0  0  0
    8.3251   -9.6865  -22.5040 H   0  0  0  0  0  0  0  0  0  0  0  0
    8.4327  -11.9037  -23.6042 H   0  0  0  0  0  0  0  0  0  0  0  0
    3.1373  -14.1756  -25.9281 H   0  0  0  0  0  0  0  0  0  0  0  0
    3.3739  -15.1505  -24.4684 H   0  0  0  0  0  0  0  0  0  0  0  0
    5.0663  -15.0032  -26.9877 H   0  0  0  0  0  0  0  0  0  0  0  0
    4.3795  -16.4229  -26.2055 H   0  0  0  0  0  0  0  0  0  0  0  0
    6.8656  -16.2683  -25.9286 H   0  0  0  0  0  0  0  0  0  0  0  0
    6.0367  -16.2476  -24.3568 H   0  0  0  0  0  0  0  0  0  0  0  0
  1  2  2  0  0  0  0
  2  3  1  0  0  0  0
  2  4  1  0  0  0  0
  3 29  1  0  0  0  0
  3 30  1  0  0  0  0
  4  5  2  0  0  0  0
  4  7  1  0  0  0  0
  5  6  1  0  0  0  0
  5 31  1  0  0  0  0
  6 14  2  0  0  0  0
  6 32  1  0  0  0  0
  7  8  1  0  0  0  0
  7 13  2  0  0  0  0
  8  9  1  0  0  0  0
  8 33  1  0  0  0  0
  9 10  1  0  0  0  0
  9 34  1  0  0  0  0
  9 35  1  0  0  0  0
 10 11  1  0  0  0  0
 10 36  1  0  0  0  0
 10 37  1  0  0  0  0
 11 12  1  0  0  0  0
 12 38  1  0  0  0  0
 12 39  1  0  0  0  0
 12 40  1  0  0  0  0
 13 14  1  0  0  0  0
 13 41  1  0  0  0  0
 14 15  1  0  0  0  0
 16 15  1  1  0  0  0
 16 17  1  0  0  0  0
 16 28  1  0  0  0  0
 17 18  1  0  0  0  0
 17 42  1  0  0  0  0
 18 19  1  0  0  0  0
 18 43  1  0  0  0  0
 19 20  1  0  0  0  0
 19 44  1  0  0  0  0
 20 45  1  0  0  0  0
 21 15  1  6  0  0  0
 21 22  1  0  0  0  0
 21 27  1  0  0  0  0
 22 23  1  0  0  0  0
 22 46  1  0  0  0  0
 22 47  1  0  0  0  0
 23 24  1  0  0  0  0
 23 48  1  0  0  0  0
 23 49  1  0  0  0  0
 24 25  1  0  0  0  0
 24 50  1  0  0  0  0
 24 51  1  0  0  0  0
 25 26  2  0  0  0  0
 27 25  1  6  0  0  0
 27 28  1  0  0  0  0
 28 20  1  1  0  0  0
M  CHG  1  15   1
M  END
$$$$
