SPM
 OpenBabel04091913313D

 44 43  0  0  0  0  0  0  0  0999 V2000
   -6.0190    0.3154   17.9821 N   0  3  0  0  0  0  0  0  0  0  0  0
   -5.5918    1.7272   18.1719 C   0  0  0  0  0  0  0  0  0  0  0  0
   -6.7141    2.6394   17.7902 C   0  0  0  0  0  0  0  0  0  0  0  0
   -6.4615    3.4316   16.5275 C   0  0  0  0  0  0  0  0  0  0  0  0
   -6.0440    2.4713   15.4194 N   0  3  0  0  0  0  0  0  0  0  0  0
   -4.6024    2.0825   15.2828 C   0  0  0  0  0  0  0  0  0  0  0  0
   -4.2635    1.4997   13.9256 C   0  0  0  0  0  0  0  0  0  0  0  0
   -4.6160    2.2986   12.6823 C   0  0  0  0  0  0  0  0  0  0  0  0
   -5.1402    3.7269   12.8888 C   0  0  0  0  0  0  0  0  0  0  0  0
   -4.1546    4.5294   13.7140 N   0  3  0  0  0  0  0  0  0  0  0  0
   -4.4361    5.8674   14.2760 C   0  0  0  0  0  0  0  0  0  0  0  0
   -3.2046    6.2167   15.1657 C   0  0  0  0  0  0  0  0  0  0  0  0
   -1.8606    5.9489   14.4766 C   0  0  0  0  0  0  0  0  0  0  0  0
   -1.1520    4.7718   15.1174 N   0  3  0  0  0  0  0  0  0  0  0  0
   -5.2612   -0.3676   18.1226 H   0  0  0  0  0  0  0  0  0  0  0  0
   -6.7310    0.0851   18.6646 H   0  0  0  0  0  0  0  0  0  0  0  0
   -4.6905    1.9001   17.6128 H   0  0  0  0  0  0  0  0  0  0  0  0
   -5.2471    1.8310   19.2031 H   0  0  0  0  0  0  0  0  0  0  0  0
   -6.9153    3.3664   18.5894 H   0  0  0  0  0  0  0  0  0  0  0  0
   -7.6582    2.0966   17.6188 H   0  0  0  0  0  0  0  0  0  0  0  0
   -5.6965    4.2153   16.6218 H   0  0  0  0  0  0  0  0  0  0  0  0
   -7.3803    3.9218   16.1640 H   0  0  0  0  0  0  0  0  0  0  0  0
   -6.6332    1.6178   15.4181 H   0  0  0  0  0  0  0  0  0  0  0  0
   -4.2813    1.3232   15.9805 H   0  0  0  0  0  0  0  0  0  0  0  0
   -3.9656    2.9214   15.5906 H   0  0  0  0  0  0  0  0  0  0  0  0
   -4.7269    0.5021   13.8790 H   0  0  0  0  0  0  0  0  0  0  0  0
   -3.1835    1.3007   13.9165 H   0  0  0  0  0  0  0  0  0  0  0  0
   -5.3683    1.7489   12.1160 H   0  0  0  0  0  0  0  0  0  0  0  0
   -3.7312    2.3556   12.0480 H   0  0  0  0  0  0  0  0  0  0  0  0
   -6.1509    3.8000   13.3375 H   0  0  0  0  0  0  0  0  0  0  0  0
   -5.2492    4.2703   11.9728 H   0  0  0  0  0  0  0  0  0  0  0  0
   -3.8067    4.0660   14.5243 H   0  0  0  0  0  0  0  0  0  0  0  0
   -5.3181    5.7712   14.9385 H   0  0  0  0  0  0  0  0  0  0  0  0
   -4.6282    6.5495   13.4796 H   0  0  0  0  0  0  0  0  0  0  0  0
   -3.2623    5.6987   16.1232 H   0  0  0  0  0  0  0  0  0  0  0  0
   -3.2834    7.2987   15.4031 H   0  0  0  0  0  0  0  0  0  0  0  0
   -1.1580    6.8154   14.6589 H   0  0  0  0  0  0  0  0  0  0  0  0
   -1.9265    5.7463   13.4582 H   0  0  0  0  0  0  0  0  0  0  0  0
   -0.2596    4.6261   14.6396 H   0  0  0  0  0  0  0  0  0  0  0  0
   -0.8510    4.9943   16.0990 H   0  0  0  0  0  0  0  0  0  0  0  0
   -6.4546    0.0562   17.0569 H   0  0  0  0  0  0  0  0  0  0  0  0
   -6.4980    2.9204   14.6347 H   0  0  0  0  0  0  0  0  0  0  0  0
   -3.3557    4.5481   13.0529 H   0  0  0  0  0  0  0  0  0  0  0  0
   -1.5971    3.8497   15.1251 H   0  0  0  0  0  0  0  0  0  0  0  0
  1  2  1  0  0  0  0
  1 15  1  0  0  0  0
  1 16  1  0  0  0  0
  1 41  1  0  0  0  0
  2  3  1  0  0  0  0
  2 17  1  0  0  0  0
  2 18  1  0  0  0  0
  3  4  1  0  0  0  0
  3 19  1  0  0  0  0
  3 20  1  0  0  0  0
  4  5  1  0  0  0  0
  4 21  1  0  0  0  0
  4 22  1  0  0  0  0
  5  6  1  0  0  0  0
  5 23  1  0  0  0  0
  5 42  1  0  0  0  0
  6  7  1  0  0  0  0
  6 24  1  0  0  0  0
  6 25  1  0  0  0  0
  7  8  1  0  0  0  0
  7 26  1  0  0  0  0
  7 27  1  0  0  0  0
  8  9  1  0  0  0  0
  8 28  1  0  0  0  0
  8 29  1  0  0  0  0
  9 10  1  0  0  0  0
  9 30  1  0  0  0  0
  9 31  1  0  0  0  0
 10 11  1  0  0  0  0
 10 32  1  0  0  0  0
 10 43  1  0  0  0  0
 11 12  1  0  0  0  0
 11 33  1  0  0  0  0
 11 34  1  0  0  0  0
 12 13  1  0  0  0  0
 12 35  1  0  0  0  0
 12 36  1  0  0  0  0
 13 14  1  0  0  0  0
 13 37  1  0  0  0  0
 13 38  1  0  0  0  0
 14 39  1  0  0  0  0
 14 40  1  0  0  0  0
 14 44  1  0  0  0  0
M  CHG  4   1   1   5   1  10   1  14   1
M  END
$$$$
