SRA
 OpenBabel04091914173D

 35 37  0  0  1  0  0  0  0  0999 V2000
   41.6028  -13.5701   -9.5128 P   0  0  2  0  0  0  0  0  0  0  0  0
   41.5344  -12.8980   -8.1388 O   0  0  0  0  0  0  0  0  0  0  0  0
   41.8752  -12.2925  -11.0012 S   0  0  0  0  0  0  0  0  0  0  0  0
   40.5278  -14.5943   -9.7980 O   0  0  0  0  0  0  0  0  0  0  0  0
   42.9705  -14.4845   -9.3894 O   0  0  0  0  0  0  0  0  0  0  0  0
   44.1385  -13.8269   -8.9803 C   0  0  0  0  0  0  0  0  0  0  0  0
   45.3295  -14.6664   -9.4271 C   0  0  1  0  0  0  0  0  0  0  0  0
   46.4672  -13.8029   -9.6116 O   0  0  0  0  0  0  0  0  0  0  0  0
   45.7746  -15.7001   -8.3903 C   0  0  1  0  0  0  0  0  0  0  0  0
   45.0587  -16.9253   -8.3860 O   0  0  0  0  0  0  0  0  0  0  0  0
   47.2408  -15.9055   -8.7612 C   0  0  2  0  0  0  0  0  0  0  0  0
   47.6480  -14.5071   -9.2178 C   0  0  2  0  0  0  0  0  0  0  0  0
   48.3223  -13.6906   -8.2370 N   0  3  0  0  0  0  0  0  0  0  0  0
   48.2781  -13.7734   -6.8676 C   0  0  0  0  0  0  0  0  0  0  0  0
   49.0742  -12.8997   -6.2848 N   0  0  0  0  0  0  0  0  0  0  0  0
   49.6031  -12.1613   -7.3326 C   0  0  0  0  0  0  0  0  0  0  0  0
   50.5055  -11.0879   -7.3803 C   0  0  0  0  0  0  0  0  0  0  0  0
   51.1155  -10.5877   -6.2427 N   0  0  0  0  0  0  0  0  0  0  0  0
   50.8324  -10.5548   -8.5794 N   0  0  0  0  0  0  0  0  0  0  0  0
   50.2869  -11.1183   -9.6876 C   0  0  0  0  0  0  0  0  0  0  0  0
   49.4689  -12.1710   -9.7630 N   0  0  0  0  0  0  0  0  0  0  0  0
   49.1459  -12.6387   -8.5526 C   0  0  0  0  0  0  0  0  0  0  0  0
   47.4041  -16.8576   -9.8328 O   0  0  0  0  0  0  0  0  0  0  0  0
   44.1239  -13.7012   -7.8948 H   0  0  0  0  0  0  0  0  0  0  0  0
   44.2168  -12.8305   -9.4216 H   0  0  0  0  0  0  0  0  0  0  0  0
   45.1113  -15.1590  -10.3821 H   0  0  0  0  0  0  0  0  0  0  0  0
   45.7195  -15.2712   -7.3834 H   0  0  0  0  0  0  0  0  0  0  0  0
   44.1075  -16.6757   -8.3442 H   0  0  0  0  0  0  0  0  0  0  0  0
   47.8355  -16.3014   -7.9326 H   0  0  0  0  0  0  0  0  0  0  0  0
   48.3086  -14.5680  -10.0935 H   0  0  0  0  0  0  0  0  0  0  0  0
   47.6713  -14.4898   -6.3347 H   0  0  0  0  0  0  0  0  0  0  0  0
   51.6200   -9.7241   -6.3433 H   0  0  0  0  0  0  0  0  0  0  0  0
   50.7457  -10.8946   -5.3558 H   0  0  0  0  0  0  0  0  0  0  0  0
   50.5520  -10.6594  -10.6348 H   0  0  0  0  0  0  0  0  0  0  0  0
   46.8236  -17.6099   -9.5999 H   0  0  0  0  0  0  0  0  0  0  0  0
  1  2  2  1  0  0  0
  1  3  1  0  0  0  0
  1  4  1  0  0  0  0
  1  5  1  0  0  0  0
  5  6  1  0  0  0  0
  6  7  1  0  0  0  0
  6 24  1  0  0  0  0
  6 25  1  0  0  0  0
  7  8  1  0  0  0  0
  7  9  1  0  0  0  0
  7 26  1  6  0  0  0
  8 12  1  0  0  0  0
  9 10  1  0  0  0  0
  9 11  1  0  0  0  0
  9 27  1  1  0  0  0
 10 28  1  0  0  0  0
 11 12  1  0  0  0  0
 11 23  1  0  0  0  0
 11 29  1  1  0  0  0
 12 13  1  0  0  0  0
 12 30  1  6  0  0  0
 13 14  2  0  0  0  0
 13 22  1  0  0  0  0
 14 15  1  0  0  0  0
 14 31  1  0  0  0  0
 15 16  1  0  0  0  0
 16 17  2  0  0  0  0
 16 22  1  0  0  0  0
 17 18  1  0  0  0  0
 17 19  1  0  0  0  0
 18 32  1  0  0  0  0
 18 33  1  0  0  0  0
 19 20  2  0  0  0  0
 20 21  1  0  0  0  0
 20 34  1  0  0  0  0
 21 22  2  0  0  0  0
 23 35  1  0  0  0  0
M  CHG  1  13   1
M  END
$$$$
