SSI
 OpenBabel04091914213D

 37 38  0  0  1  0  0  0  0  0999 V2000
   65.7583   35.7685   71.4621 P   0  0  0  0  0  0  0  0  0  0  0  0
   64.4800   37.4515   80.4748 N   0  3  0  0  0  0  0  0  0  0  0  0
   63.2813   36.8030   80.1938 C   0  0  0  0  0  0  0  0  0  0  0  0
   62.9625   36.2366   79.0763 N   0  0  0  0  0  0  0  0  0  0  0  0
   63.9625   36.3139   78.0961 C   0  0  1  0  0  0  0  0  0  0  0  0
   65.1594   36.9354   78.3115 C   0  0  1  0  0  0  0  0  0  0  0  0
   65.5122   37.5689   79.5645 C   0  0  0  0  0  0  0  0  0  0  0  0
   66.5488   38.1377   79.8324 O   0  0  0  0  0  0  0  0  0  0  0  0
   65.9023   36.8115   77.1475 N   0  3  0  0  0  0  0  0  0  0  0  0
   65.1522   36.0954   76.2397 C   0  0  0  0  0  0  0  0  0  0  0  0
   63.9210   35.7625   76.7839 C   0  0  1  0  0  0  0  0  0  0  0  0
   62.8691   34.9291   76.1249 C   0  0  0  0  0  0  0  0  0  0  0  0
   65.0653   34.6650   70.6786 O   0  0  0  0  0  0  0  0  0  0  0  0
   66.3338   36.9209   70.6572 O   0  0  0  0  0  0  0  0  0  0  0  0
   61.2798   36.6646   73.0688 C   0  0  0  0  0  0  0  0  0  0  0  0
   60.1346   37.0423   73.8492 O   0  0  0  0  0  0  0  0  0  0  0  0
   66.5610   35.3245   72.6765 O   0  0  0  0  0  0  0  0  0  0  0  0
   62.4921   36.3797   73.9849 C   0  0  1  0  0  0  0  0  0  0  0  0
   61.9556   35.6060   75.1653 N   0  3  0  0  0  0  0  0  0  0  0  0
   63.5532   35.6284   73.2143 C   0  0  0  0  0  0  0  0  0  0  0  0
   64.2923   36.5825   72.2842 C   0  0  0  0  0  0  0  0  0  0  0  0
   64.6281   37.8674   81.3796 H   0  0  0  0  0  0  0  0  0  0  0  0
   62.5827   36.8097   81.0506 H   0  0  0  0  0  0  0  0  0  0  0  0
   66.8352   37.1547   76.9639 H   0  0  0  0  0  0  0  0  0  0  0  0
   65.5838   35.8594   75.2671 H   0  0  0  0  0  0  0  0  0  0  0  0
   62.1938   34.5118   76.8822 H   0  0  0  0  0  0  0  0  0  0  0  0
   63.2926   34.0757   75.5845 H   0  0  0  0  0  0  0  0  0  0  0  0
   61.5198   37.4542   72.3522 H   0  0  0  0  0  0  0  0  0  0  0  0
   61.0030   35.7590   72.5149 H   0  0  0  0  0  0  0  0  0  0  0  0
   60.3177   37.9125   74.2476 H   0  0  0  0  0  0  0  0  0  0  0  0
   62.8592   37.3230   74.4024 H   0  0  0  0  0  0  0  0  0  0  0  0
   61.3186   34.9017   74.7772 H   0  0  0  0  0  0  0  0  0  0  0  0
   63.1150   34.8062   72.6406 H   0  0  0  0  0  0  0  0  0  0  0  0
   64.2694   35.1686   73.8874 H   0  0  0  0  0  0  0  0  0  0  0  0
   63.6251   36.9407   71.4938 H   0  0  0  0  0  0  0  0  0  0  0  0
   64.6718   37.4443   72.8411 H   0  0  0  0  0  0  0  0  0  0  0  0
   61.3702   36.2536   75.6984 H   0  0  0  0  0  0  0  0  0  0  0  0
  1 13  2  0  0  0  0
  1 14  1  0  0  0  0
  1 17  1  0  0  0  0
  1 21  1  0  0  0  0
  2  3  1  0  0  0  0
  2  7  1  0  0  0  0
  2 22  1  0  0  0  0
  3  4  1  0  0  0  0
  3 23  1  0  0  0  0
  5  4  1  1  0  0  0
  5  6  1  0  0  0  0
  5 11  1  0  0  0  0
  6  7  1  1  0  0  0
  6  9  1  0  0  0  0
  7  8  2  0  0  0  0
  9 10  1  0  0  0  0
  9 24  1  0  0  0  0
 10 11  1  0  0  0  0
 10 25  1  0  0  0  0
 11 12  1  1  0  0  0
 12 19  1  0  0  0  0
 12 26  1  0  0  0  0
 12 27  1  0  0  0  0
 15 16  1  0  0  0  0
 15 18  1  0  0  0  0
 15 28  1  0  0  0  0
 15 29  1  0  0  0  0
 16 30  1  0  0  0  0
 18 19  1  0  0  0  0
 18 20  1  0  0  0  0
 18 31  1  1  0  0  0
 19 32  1  0  0  0  0
 19 37  1  0  0  0  0
 20 21  1  0  0  0  0
 20 33  1  0  0  0  0
 20 34  1  0  0  0  0
 21 35  1  0  0  0  0
 21 36  1  0  0  0  0
M  CHG  3   2   1   9   1  19   1
M  END
$$$$
