STE
 OpenBabel04091915573D

 55 54  0  0  0  0  0  0  0  0999 V2000
   -0.8147    2.2075   21.0899 C   0  0  0  0  0  0  0  0  0  0  0  0
   -2.0192    1.8801   21.0848 O   0  0  0  0  0  0  0  0  0  0  0  0
    0.1600    1.7135   21.7564 O   0  0  0  0  0  0  0  0  0  0  0  0
   -0.4329    3.3684   20.1721 C   0  0  0  0  0  0  0  0  0  0  0  0
   -0.9021    4.6678   20.8184 C   0  0  0  0  0  0  0  0  0  0  0  0
   -2.0355    5.3100   20.0218 C   0  0  0  0  0  0  0  0  0  0  0  0
   -3.0722    5.9489   20.9396 C   0  0  0  0  0  0  0  0  0  0  0  0
   -4.0706    6.8060   20.1700 C   0  0  0  0  0  0  0  0  0  0  0  0
   -3.3475    7.8827   19.3784 C   0  0  0  0  0  0  0  0  0  0  0  0
   -4.1387    9.1656   19.3270 C   0  0  0  0  0  0  0  0  0  0  0  0
   -3.2089   10.2932   18.9402 C   0  0  0  0  0  0  0  0  0  0  0  0
   -4.0078   11.5317   18.6182 C   0  0  0  0  0  0  0  0  0  0  0  0
   -3.1045   12.7253   18.8075 C   0  0  0  0  0  0  0  0  0  0  0  0
   -3.8459   13.9818   18.4259 C   0  0  0  0  0  0  0  0  0  0  0  0
   -2.8388   15.0937   18.2354 C   0  0  0  0  0  0  0  0  0  0  0  0
   -3.5325   16.4312   18.1368 C   0  0  0  0  0  0  0  0  0  0  0  0
   -3.7756   16.8237   16.6938 C   0  0  0  0  0  0  0  0  0  0  0  0
   -4.5066   18.1538   16.6765 C   0  0  0  0  0  0  0  0  0  0  0  0
   -4.6594   18.7370   15.2851 C   0  0  0  0  0  0  0  0  0  0  0  0
   -4.8089   17.6745   14.2205 C   0  0  0  0  0  0  0  0  0  0  0  0
   -0.9023    3.2246   19.1893 H   0  0  0  0  0  0  0  0  0  0  0  0
    0.6529    3.3985   20.0195 H   0  0  0  0  0  0  0  0  0  0  0  0
   -0.0626    5.3756   20.8619 H   0  0  0  0  0  0  0  0  0  0  0  0
   -1.2333    4.4810   21.8456 H   0  0  0  0  0  0  0  0  0  0  0  0
   -2.5413    4.5632   19.4001 H   0  0  0  0  0  0  0  0  0  0  0  0
   -1.6041    6.0616   19.3524 H   0  0  0  0  0  0  0  0  0  0  0  0
   -2.5645    6.5759   21.6829 H   0  0  0  0  0  0  0  0  0  0  0  0
   -3.6159    5.1606   21.4729 H   0  0  0  0  0  0  0  0  0  0  0  0
   -4.7666    7.2624   20.8840 H   0  0  0  0  0  0  0  0  0  0  0  0
   -4.6545    6.1788   19.4866 H   0  0  0  0  0  0  0  0  0  0  0  0
   -3.1709    7.5299   18.3540 H   0  0  0  0  0  0  0  0  0  0  0  0
   -2.3720    8.0895   19.8362 H   0  0  0  0  0  0  0  0  0  0  0  0
   -4.5772    9.3833   20.3080 H   0  0  0  0  0  0  0  0  0  0  0  0
   -4.9524    9.0764   18.5984 H   0  0  0  0  0  0  0  0  0  0  0  0
   -2.6028   10.0104   18.0712 H   0  0  0  0  0  0  0  0  0  0  0  0
   -2.5196   10.4980   19.7705 H   0  0  0  0  0  0  0  0  0  0  0  0
   -4.8832   11.6160   19.2733 H   0  0  0  0  0  0  0  0  0  0  0  0
   -4.3668   11.4883   17.5815 H   0  0  0  0  0  0  0  0  0  0  0  0
   -2.2046   12.6101   18.1912 H   0  0  0  0  0  0  0  0  0  0  0  0
   -2.7854   12.7874   19.8570 H   0  0  0  0  0  0  0  0  0  0  0  0
   -4.5624   14.2357   19.2176 H   0  0  0  0  0  0  0  0  0  0  0  0
   -4.4059   13.8227   17.4954 H   0  0  0  0  0  0  0  0  0  0  0  0
   -2.2530   14.8946   17.3280 H   0  0  0  0  0  0  0  0  0  0  0  0
   -2.1543   15.1040   19.0911 H   0  0  0  0  0  0  0  0  0  0  0  0
   -2.9023   17.1929   18.6074 H   0  0  0  0  0  0  0  0  0  0  0  0
   -4.4883   16.4086   18.6717 H   0  0  0  0  0  0  0  0  0  0  0  0
   -4.3791   16.0554   16.1958 H   0  0  0  0  0  0  0  0  0  0  0  0
   -2.8233   16.9118   16.1579 H   0  0  0  0  0  0  0  0  0  0  0  0
   -3.9614   18.8742   17.3010 H   0  0  0  0  0  0  0  0  0  0  0  0
   -5.5020   18.0146   17.1171 H   0  0  0  0  0  0  0  0  0  0  0  0
   -3.7774   19.3481   15.0595 H   0  0  0  0  0  0  0  0  0  0  0  0
   -5.5406   19.3902   15.2723 H   0  0  0  0  0  0  0  0  0  0  0  0
   -4.9140   18.1397   13.2369 H   0  0  0  0  0  0  0  0  0  0  0  0
   -5.6898   17.0565   14.4205 H   0  0  0  0  0  0  0  0  0  0  0  0
   -3.9268   17.0303   14.1881 H   0  0  0  0  0  0  0  0  0  0  0  0
  1  2  2  0  0  0  0
  1  3  1  0  0  0  0
  1  4  1  0  0  0  0
  4  5  1  0  0  0  0
  4 21  1  0  0  0  0
  4 22  1  0  0  0  0
  5  6  1  0  0  0  0
  5 23  1  0  0  0  0
  5 24  1  0  0  0  0
  6  7  1  0  0  0  0
  6 25  1  0  0  0  0
  6 26  1  0  0  0  0
  7  8  1  0  0  0  0
  7 27  1  0  0  0  0
  7 28  1  0  0  0  0
  8  9  1  0  0  0  0
  8 29  1  0  0  0  0
  8 30  1  0  0  0  0
  9 10  1  0  0  0  0
  9 31  1  0  0  0  0
  9 32  1  0  0  0  0
 10 11  1  0  0  0  0
 10 33  1  0  0  0  0
 10 34  1  0  0  0  0
 11 12  1  0  0  0  0
 11 35  1  0  0  0  0
 11 36  1  0  0  0  0
 12 13  1  0  0  0  0
 12 37  1  0  0  0  0
 12 38  1  0  0  0  0
 13 14  1  0  0  0  0
 13 39  1  0  0  0  0
 13 40  1  0  0  0  0
 14 15  1  0  0  0  0
 14 41  1  0  0  0  0
 14 42  1  0  0  0  0
 15 16  1  0  0  0  0
 15 43  1  0  0  0  0
 15 44  1  0  0  0  0
 16 17  1  0  0  0  0
 16 45  1  0  0  0  0
 16 46  1  0  0  0  0
 17 18  1  0  0  0  0
 17 47  1  0  0  0  0
 17 48  1  0  0  0  0
 18 19  1  0  0  0  0
 18 49  1  0  0  0  0
 18 50  1  0  0  0  0
 19 20  1  0  0  0  0
 19 51  1  0  0  0  0
 19 52  1  0  0  0  0
 20 53  1  0  0  0  0
 20 54  1  0  0  0  0
 20 55  1  0  0  0  0
M  END
$$$$
