STE
 OpenBabel04091916053D

 55 54  0  0  0  0  0  0  0  0999 V2000
    0.2675   -0.1797   11.3919 C   0  0  0  0  0  0  0  0  0  0  0  0
   -0.4937   -1.2157   11.5194 O   0  0  0  0  0  0  0  0  0  0  0  0
    0.0760    0.9998   11.8087 O   0  0  0  0  0  0  0  0  0  0  0  0
    1.5777   -0.4445   10.6778 C   0  0  0  0  0  0  0  0  0  0  0  0
    1.4381   -0.6357    9.1701 C   0  0  0  0  0  0  0  0  0  0  0  0
    2.7832   -0.9091    8.4801 C   0  0  0  0  0  0  0  0  0  0  0  0
    3.4805    0.3884    8.0581 C   0  0  0  0  0  0  0  0  0  0  0  0
    3.7605    0.4434    6.5564 C   0  0  0  0  0  0  0  0  0  0  0  0
    5.1314   -0.1426    6.2196 C   0  0  0  0  0  0  0  0  0  0  0  0
    5.4062   -0.0631    4.7159 C   0  0  0  0  0  0  0  0  0  0  0  0
    6.8787    0.2309    4.4438 C   0  0  0  0  0  0  0  0  0  0  0  0
    7.1739    0.3290    2.9548 C   0  0  0  0  0  0  0  0  0  0  0  0
    8.6725    0.3774    2.6750 C   0  0  0  0  0  0  0  0  0  0  0  0
    8.9189    1.1232    1.3670 C   0  0  0  0  0  0  0  0  0  0  0  0
    9.6426    0.2322    0.3650 C   0  0  0  0  0  0  0  0  0  0  0  0
   11.0700    0.7157    0.1407 C   0  0  0  0  0  0  0  0  0  0  0  0
   11.5898    0.2947   -1.2388 C   0  0  0  0  0  0  0  0  0  0  0  0
   12.5074    1.3808   -1.8145 C   0  0  0  0  0  0  0  0  0  0  0  0
   12.7337    1.2999   -3.3329 C   0  0  0  0  0  0  0  0  0  0  0  0
   13.9980    0.6518   -3.8673 C   0  0  0  0  0  0  0  0  0  0  0  0
    2.0456   -1.3478   11.1004 H   0  0  0  0  0  0  0  0  0  0  0  0
    2.2714    0.3952   10.8589 H   0  0  0  0  0  0  0  0  0  0  0  0
    0.9717    0.2542    8.7336 H   0  0  0  0  0  0  0  0  0  0  0  0
    0.7757   -1.4876    8.9795 H   0  0  0  0  0  0  0  0  0  0  0  0
    2.6033   -1.5395    7.6034 H   0  0  0  0  0  0  0  0  0  0  0  0
    3.4403   -1.4611    9.1614 H   0  0  0  0  0  0  0  0  0  0  0  0
    4.4273    0.4749    8.6048 H   0  0  0  0  0  0  0  0  0  0  0  0
    2.8601    1.2483    8.3253 H   0  0  0  0  0  0  0  0  0  0  0  0
    3.7389    1.4968    6.2388 H   0  0  0  0  0  0  0  0  0  0  0  0
    2.9799   -0.0832    5.9997 H   0  0  0  0  0  0  0  0  0  0  0  0
    5.1658   -1.1901    6.5417 H   0  0  0  0  0  0  0  0  0  0  0  0
    5.9011    0.4006    6.7739 H   0  0  0  0  0  0  0  0  0  0  0  0
    4.7922    0.7202    4.2651 H   0  0  0  0  0  0  0  0  0  0  0  0
    5.1384   -1.0202    4.2532 H   0  0  0  0  0  0  0  0  0  0  0  0
    7.4930   -0.5543    4.8819 H   0  0  0  0  0  0  0  0  0  0  0  0
    7.1398    1.1911    4.9089 H   0  0  0  0  0  0  0  0  0  0  0  0
    6.7010    1.2374    2.5662 H   0  0  0  0  0  0  0  0  0  0  0  0
    6.7521   -0.5341    2.4319 H   0  0  0  0  0  0  0  0  0  0  0  0
    9.0551   -0.6479    2.6224 H   0  0  0  0  0  0  0  0  0  0  0  0
    9.2068    0.8785    3.4837 H   0  0  0  0  0  0  0  0  0  0  0  0
    9.4939    2.0319    1.5763 H   0  0  0  0  0  0  0  0  0  0  0  0
    7.9716    1.4475    0.9220 H   0  0  0  0  0  0  0  0  0  0  0  0
    9.0835    0.2483   -0.5754 H   0  0  0  0  0  0  0  0  0  0  0  0
    9.6667   -0.8067    0.7085 H   0  0  0  0  0  0  0  0  0  0  0  0
   11.7131    0.3060    0.9286 H   0  0  0  0  0  0  0  0  0  0  0  0
   11.0947    1.8062    0.2272 H   0  0  0  0  0  0  0  0  0  0  0  0
   10.7478    0.1167   -1.9114 H   0  0  0  0  0  0  0  0  0  0  0  0
   12.1488   -0.6437   -1.1339 H   0  0  0  0  0  0  0  0  0  0  0  0
   13.4500    1.3662   -1.2730 H   0  0  0  0  0  0  0  0  0  0  0  0
   12.0177    2.3483   -1.6187 H   0  0  0  0  0  0  0  0  0  0  0  0
   12.7415    2.3313   -3.7067 H   0  0  0  0  0  0  0  0  0  0  0  0
   11.8897    0.7743   -3.7835 H   0  0  0  0  0  0  0  0  0  0  0  0
   13.9891    0.7067   -4.9705 H   0  0  0  0  0  0  0  0  0  0  0  0
   14.0560   -0.4021   -3.5937 H   0  0  0  0  0  0  0  0  0  0  0  0
   14.8986    1.1680   -3.5263 H   0  0  0  0  0  0  0  0  0  0  0  0
  1  2  2  0  0  0  0
  1  3  1  0  0  0  0
  1  4  1  0  0  0  0
  4  5  1  0  0  0  0
  4 21  1  0  0  0  0
  4 22  1  0  0  0  0
  5  6  1  0  0  0  0
  5 23  1  0  0  0  0
  5 24  1  0  0  0  0
  6  7  1  0  0  0  0
  6 25  1  0  0  0  0
  6 26  1  0  0  0  0
  7  8  1  0  0  0  0
  7 27  1  0  0  0  0
  7 28  1  0  0  0  0
  8  9  1  0  0  0  0
  8 29  1  0  0  0  0
  8 30  1  0  0  0  0
  9 10  1  0  0  0  0
  9 31  1  0  0  0  0
  9 32  1  0  0  0  0
 10 11  1  0  0  0  0
 10 33  1  0  0  0  0
 10 34  1  0  0  0  0
 11 12  1  0  0  0  0
 11 35  1  0  0  0  0
 11 36  1  0  0  0  0
 12 13  1  0  0  0  0
 12 37  1  0  0  0  0
 12 38  1  0  0  0  0
 13 14  1  0  0  0  0
 13 39  1  0  0  0  0
 13 40  1  0  0  0  0
 14 15  1  0  0  0  0
 14 41  1  0  0  0  0
 14 42  1  0  0  0  0
 15 16  1  0  0  0  0
 15 43  1  0  0  0  0
 15 44  1  0  0  0  0
 16 17  1  0  0  0  0
 16 45  1  0  0  0  0
 16 46  1  0  0  0  0
 17 18  1  0  0  0  0
 17 47  1  0  0  0  0
 17 48  1  0  0  0  0
 18 19  1  0  0  0  0
 18 49  1  0  0  0  0
 18 50  1  0  0  0  0
 19 20  1  0  0  0  0
 19 51  1  0  0  0  0
 19 52  1  0  0  0  0
 20 53  1  0  0  0  0
 20 54  1  0  0  0  0
 20 55  1  0  0  0  0
M  END
$$$$
