STJ
 OpenBabel04091913233D

 40 42  0  0  0  0  0  0  0  0999 V2000
   16.7917   38.1545   48.9926 F   0  0  0  0  0  0  0  0  0  0  0  0
   17.3513   38.8145   50.0320 C   0  0  0  0  0  0  0  0  0  0  0  0
   16.5341   38.6792   51.0990 F   0  0  0  0  0  0  0  0  0  0  0  0
   18.5435   38.2404   50.2996 F   0  0  0  0  0  0  0  0  0  0  0  0
   17.5067   40.1810   49.6649 O   0  0  0  0  0  0  0  0  0  0  0  0
   18.0439   40.9124   50.6792 C   0  0  0  0  0  0  0  0  0  0  0  0
   19.4082   41.1839   50.6730 C   0  0  0  0  0  0  0  0  0  0  0  0
   19.9559   42.0127   51.6570 C   0  0  0  0  0  0  0  0  0  0  0  0
   19.1536   42.6108   52.6343 C   0  0  0  0  0  0  0  0  0  0  0  0
   17.7776   42.3200   52.6174 C   0  0  0  0  0  0  0  0  0  0  0  0
   17.2218   41.4906   51.6389 C   0  0  0  0  0  0  0  0  0  0  0  0
   19.6470   43.4094   53.6831 N   0  0  0  0  0  0  0  0  0  0  0  0
   20.9565   43.8235   54.0078 C   0  0  0  0  0  0  0  0  0  0  0  0
   22.0215   43.3606   53.3379 N   0  0  0  0  0  0  0  0  0  0  0  0
   23.2281   43.7473   53.7579 C   0  0  0  0  0  0  0  0  0  0  0  0
   23.4737   44.5474   54.7966 N   0  0  0  0  0  0  0  0  0  0  0  0
   22.4001   45.0081   55.4710 C   0  0  0  0  0  0  0  0  0  0  0  0
   21.1142   44.6599   55.1008 C   0  0  0  0  0  0  0  0  0  0  0  0
   22.7039   45.9158   56.5963 C   0  0  0  0  0  0  0  0  0  0  0  0
   23.9139   46.6298   56.6044 C   0  0  0  0  0  0  0  0  0  0  0  0
   24.2315   47.5003   57.6463 C   0  0  0  0  0  0  0  0  0  0  0  0
   23.3576   47.6889   58.7138 C   0  0  0  0  0  0  0  0  0  0  0  0
   22.1471   46.9968   58.7270 C   0  0  0  0  0  0  0  0  0  0  0  0
   21.8278   46.1186   57.6819 C   0  0  0  0  0  0  0  0  0  0  0  0
   25.4932   48.2481   57.5498 C   0  0  0  0  0  0  0  0  0  0  0  0
   25.6415   49.1393   56.7245 O   0  0  0  0  0  0  0  0  0  0  0  0
   26.4938   47.8380   58.3801 N   0  0  0  0  0  0  0  0  0  0  0  0
   20.0564   40.7599   49.9113 H   0  0  0  0  0  0  0  0  0  0  0  0
   21.0243   42.1975   51.6170 H   0  0  0  0  0  0  0  0  0  0  0  0
   17.1197   42.7463   53.3697 H   0  0  0  0  0  0  0  0  0  0  0  0
   16.1508   41.3030   51.6338 H   0  0  0  0  0  0  0  0  0  0  0  0
   18.9333   43.9950   54.0964 H   0  0  0  0  0  0  0  0  0  0  0  0
   24.0845   43.3772   53.2057 H   0  0  0  0  0  0  0  0  0  0  0  0
   20.2522   45.0409   55.6304 H   0  0  0  0  0  0  0  0  0  0  0  0
   24.6192   46.5200   55.7809 H   0  0  0  0  0  0  0  0  0  0  0  0
   23.5983   48.3877   59.5101 H   0  0  0  0  0  0  0  0  0  0  0  0
   21.4414   47.1472   59.5411 H   0  0  0  0  0  0  0  0  0  0  0  0
   20.8771   45.5922   57.7373 H   0  0  0  0  0  0  0  0  0  0  0  0
   27.4104   48.2331   58.2080 H   0  0  0  0  0  0  0  0  0  0  0  0
   26.4331   46.9812   58.9127 H   0  0  0  0  0  0  0  0  0  0  0  0
  1  2  1  0  0  0  0
  2  3  1  0  0  0  0
  2  4  1  0  0  0  0
  2  5  1  0  0  0  0
  5  6  1  0  0  0  0
  6  7  2  0  0  0  0
  6 11  1  0  0  0  0
  7  8  1  0  0  0  0
  7 28  1  0  0  0  0
  8  9  2  0  0  0  0
  8 29  1  0  0  0  0
  9 10  1  0  0  0  0
  9 12  1  0  0  0  0
 10 11  2  0  0  0  0
 10 30  1  0  0  0  0
 11 31  1  0  0  0  0
 12 13  1  0  0  0  0
 12 32  1  0  0  0  0
 13 14  2  0  0  0  0
 13 18  1  0  0  0  0
 14 15  1  0  0  0  0
 15 16  2  0  0  0  0
 15 33  1  0  0  0  0
 16 17  1  0  0  0  0
 17 18  2  0  0  0  0
 17 19  1  0  0  0  0
 18 34  1  0  0  0  0
 19 20  2  0  0  0  0
 19 24  1  0  0  0  0
 20 21  1  0  0  0  0
 20 35  1  0  0  0  0
 21 22  2  0  0  0  0
 21 25  1  0  0  0  0
 22 23  1  0  0  0  0
 22 36  1  0  0  0  0
 23 24  2  0  0  0  0
 23 37  1  0  0  0  0
 24 38  1  0  0  0  0
 25 26  2  0  0  0  0
 25 27  1  0  0  0  0
 27 39  1  0  0  0  0
 27 40  1  0  0  0  0
M  END
$$$$
