SU3
 OpenBabel04091915203D

108113  0  0  1  0  0  0  0  0999 V2000
  -13.1725   -8.2523   14.0749 C   0  0  0  0  0  0  0  0  0  0  0  0
  -15.0286   -9.7541   13.5350 N   0  0  0  0  0  0  0  0  0  0  0  0
  -13.3246   -7.4706   13.1426 O   0  0  0  0  0  0  0  0  0  0  0  0
  -13.6540   -9.6996   14.0426 C   0  0  1  0  0  0  0  0  0  0  0  0
  -12.8745  -10.5197   13.0187 C   0  0  0  0  0  0  0  0  0  0  0  0
  -13.9049  -11.5628   12.5847 C   0  0  2  0  0  0  0  0  0  0  0  0
  -16.0186   -9.0078   14.1224 C   0  0  0  0  0  0  0  0  0  0  0  0
  -15.7812   -8.2644   15.0720 O   0  0  0  0  0  0  0  0  0  0  0  0
  -17.4221   -9.0802   13.5117 C   0  0  1  0  0  0  0  0  0  0  0  0
  -18.3500   -9.3304   14.5987 N   0  0  0  0  0  0  0  0  0  0  0  0
  -18.9695  -10.5332   14.7300 C   0  0  0  0  0  0  0  0  0  0  0  0
  -19.7804  -10.5220   15.8208 O   0  0  0  0  0  0  0  0  0  0  0  0
  -17.7851   -7.8031   12.7291 C   0  0  0  0  0  0  0  0  0  0  0  0
  -18.8386  -11.4472   13.9552 O   0  0  0  0  0  0  0  0  0  0  0  0
  -13.2526  -13.6061   13.6501 C   0  0  0  0  0  0  0  0  0  0  0  0
  -12.3926  -13.7507   12.8229 O   0  0  0  0  0  0  0  0  0  0  0  0
  -13.4913  -14.4631   14.6875 N   0  0  0  0  0  0  0  0  0  0  0  0
  -13.6377   -4.1968   15.5301 C   0  0  0  0  0  0  0  0  0  0  0  0
  -14.0683   -3.9827   14.0915 C   0  0  0  0  0  0  0  0  0  0  0  0
  -19.1492   -8.0173   12.0664 C   0  0  0  0  0  0  0  0  0  0  0  0
  -12.5422   -7.8933   15.2369 N   0  0  0  0  0  0  0  0  0  0  0  0
  -12.3060   -6.5041   15.5756 C   0  0  1  0  0  0  0  0  0  0  0  0
  -11.0838   -5.8549   14.9840 C   0  0  0  0  0  0  0  0  0  0  0  0
  -13.5460   -5.6550   15.8748 C   0  0  1  0  0  0  0  0  0  0  0  0
  -12.6250   -6.0839   16.9970 C   0  0  0  0  0  0  0  0  0  0  0  0
  -12.7498  -15.7450   14.9050 C   0  0  0  0  0  0  0  0  0  0  0  0
  -13.3753  -16.2947   16.1621 C   0  0  0  0  0  0  0  0  0  0  0  0
  -14.3686  -15.4166   16.6191 C   0  0  0  0  0  0  0  0  0  0  0  0
  -14.4848  -14.2395   15.7054 C   0  0  0  0  0  0  0  0  0  0  0  0
  -13.1078  -17.4668   16.8641 C   0  0  0  0  0  0  0  0  0  0  0  0
  -13.8338  -17.7487   18.0308 C   0  0  0  0  0  0  0  0  0  0  0  0
  -14.8183  -16.8645   18.4808 C   0  0  0  0  0  0  0  0  0  0  0  0
  -15.0971  -15.6832   17.7796 C   0  0  0  0  0  0  0  0  0  0  0  0
  -16.1532  -14.7618   18.3171 C   0  0  0  0  0  0  0  0  0  0  0  0
  -10.2565   -6.6869   14.2284 N   0  0  0  0  0  0  0  0  0  0  0  0
  -10.7756   -4.7142   15.2217 O   0  0  0  0  0  0  0  0  0  0  0  0
   -8.9247   -5.9441   13.5585 S   0  0  0  0  0  0  0  0  0  0  0  0
   -8.2051   -7.2885   12.6182 C   0  0  0  0  0  0  0  0  0  0  0  0
   -9.3889   -4.9623   12.6061 O   0  0  0  0  0  0  0  0  0  0  0  0
   -8.0066   -5.5580   14.6120 O   0  0  0  0  0  0  0  0  0  0  0  0
   -6.7976   -7.0034   12.1817 C   0  0  0  0  0  0  0  0  0  0  0  0
   -7.0646   -8.0200   13.2821 C   0  0  0  0  0  0  0  0  0  0  0  0
  -17.5425  -15.0455   17.7639 C   0  0  0  0  0  0  0  0  0  0  0  0
  -18.5150  -13.9613   18.2223 C   0  0  0  0  0  0  0  0  0  0  0  0
  -18.9859  -13.1369   17.0346 C   0  0  0  0  0  0  0  0  0  0  0  0
  -20.3268  -12.4244   17.2521 C   0  0  0  0  0  0  0  0  0  0  0  0
  -20.6298  -11.6767   15.9529 C   0  0  0  0  0  0  0  0  0  0  0  0
  -21.4475  -13.4422   17.4817 C   0  0  0  0  0  0  0  0  0  0  0  0
  -20.2543  -11.4482   18.4270 C   0  0  0  0  0  0  0  0  0  0  0  0
  -17.8567   -6.5455   13.5996 C   0  0  0  0  0  0  0  0  0  0  0  0
  -16.7386   -7.5640   11.6439 C   0  0  0  0  0  0  0  0  0  0  0  0
  -15.1872  -10.7549   12.4823 C   0  0  0  0  0  0  0  0  0  0  0  0
  -14.1020  -12.5215   13.6569 O   0  0  0  0  0  0  0  0  0  0  0  0
  -13.5695  -10.1606   15.0369 H   0  0  0  0  0  0  0  0  0  0  0  0
  -11.9930  -10.9845   13.4642 H   0  0  0  0  0  0  0  0  0  0  0  0
  -12.5667   -9.8955   12.1691 H   0  0  0  0  0  0  0  0  0  0  0  0
  -13.6398  -12.0502   11.6406 H   0  0  0  0  0  0  0  0  0  0  0  0
  -17.4592   -9.9202   12.8175 H   0  0  0  0  0  0  0  0  0  0  0  0
  -18.5390   -8.6089   15.2755 H   0  0  0  0  0  0  0  0  0  0  0  0
  -14.3626   -3.7078   16.1937 H   0  0  0  0  0  0  0  0  0  0  0  0
  -12.6746   -3.7080   15.6850 H   0  0  0  0  0  0  0  0  0  0  0  0
  -14.1245   -2.9109   13.8647 H   0  0  0  0  0  0  0  0  0  0  0  0
  -15.0535   -4.4313   13.9244 H   0  0  0  0  0  0  0  0  0  0  0  0
  -13.3482   -4.4499   13.4113 H   0  0  0  0  0  0  0  0  0  0  0  0
  -19.4481   -7.1277   11.5020 H   0  0  0  0  0  0  0  0  0  0  0  0
  -19.9134   -8.2209   12.8260 H   0  0  0  0  0  0  0  0  0  0  0  0
  -19.1022   -8.8712   11.3803 H   0  0  0  0  0  0  0  0  0  0  0  0
  -12.3305   -8.6024   15.9240 H   0  0  0  0  0  0  0  0  0  0  0  0
  -14.5194   -6.1375   15.7666 H   0  0  0  0  0  0  0  0  0  0  0  0
  -12.0011   -5.3294   17.4717 H   0  0  0  0  0  0  0  0  0  0  0  0
  -12.9334   -6.8412   17.7005 H   0  0  0  0  0  0  0  0  0  0  0  0
  -11.6811  -15.5503   15.0464 H   0  0  0  0  0  0  0  0  0  0  0  0
  -12.9011  -16.4228   14.0580 H   0  0  0  0  0  0  0  0  0  0  0  0
  -15.4696  -14.1860   15.2369 H   0  0  0  0  0  0  0  0  0  0  0  0
  -14.2595  -13.3022   16.2209 H   0  0  0  0  0  0  0  0  0  0  0  0
  -12.3523  -18.1702   16.5325 H   0  0  0  0  0  0  0  0  0  0  0  0
  -13.6376  -18.6579   18.5970 H   0  0  0  0  0  0  0  0  0  0  0  0
  -15.3718  -17.0928   19.3900 H   0  0  0  0  0  0  0  0  0  0  0  0
  -15.8852  -13.7258   18.0821 H   0  0  0  0  0  0  0  0  0  0  0  0
  -16.1921  -14.8587   19.4126 H   0  0  0  0  0  0  0  0  0  0  0  0
  -10.4844   -7.6608   14.0582 H   0  0  0  0  0  0  0  0  0  0  0  0
   -8.9144   -7.8007   11.9876 H   0  0  0  0  0  0  0  0  0  0  0  0
   -6.3422   -6.0439   12.4339 H   0  0  0  0  0  0  0  0  0  0  0  0
   -6.4768   -7.3335   11.2019 H   0  0  0  0  0  0  0  0  0  0  0  0
   -6.9179   -9.0769   13.0782 H   0  0  0  0  0  0  0  0  0  0  0  0
   -6.7828   -7.7881   14.3095 H   0  0  0  0  0  0  0  0  0  0  0  0
  -17.8911  -16.0237   18.1229 H   0  0  0  0  0  0  0  0  0  0  0  0
  -17.4988  -15.0782   16.6701 H   0  0  0  0  0  0  0  0  0  0  0  0
  -18.0306  -13.2967   18.9472 H   0  0  0  0  0  0  0  0  0  0  0  0
  -19.3700  -14.4307   18.7121 H   0  0  0  0  0  0  0  0  0  0  0  0
  -19.0908  -13.7956   16.1589 H   0  0  0  0  0  0  0  0  0  0  0  0
  -18.2209  -12.3844   16.8008 H   0  0  0  0  0  0  0  0  0  0  0  0
  -20.5039  -12.3684   15.1117 H   0  0  0  0  0  0  0  0  0  0  0  0
  -21.6688  -11.3344   15.9688 H   0  0  0  0  0  0  0  0  0  0  0  0
  -21.2833  -14.0013   18.4057 H   0  0  0  0  0  0  0  0  0  0  0  0
  -21.4923  -14.1500   16.6446 H   0  0  0  0  0  0  0  0  0  0  0  0
  -22.4138  -12.9310   17.5606 H   0  0  0  0  0  0  0  0  0  0  0  0
  -19.4503  -10.7191   18.2677 H   0  0  0  0  0  0  0  0  0  0  0  0
  -20.0569  -11.9817   19.3629 H   0  0  0  0  0  0  0  0  0  0  0  0
  -21.2017  -10.9042   18.5289 H   0  0  0  0  0  0  0  0  0  0  0  0
  -16.8920   -6.3541   14.0786 H   0  0  0  0  0  0  0  0  0  0  0  0
  -18.6222   -6.6563   14.3725 H   0  0  0  0  0  0  0  0  0  0  0  0
  -18.1101   -5.6711   12.9840 H   0  0  0  0  0  0  0  0  0  0  0  0
  -16.6616   -8.4464   11.0028 H   0  0  0  0  0  0  0  0  0  0  0  0
  -15.7620   -7.3695   12.0994 H   0  0  0  0  0  0  0  0  0  0  0  0
  -17.0142   -6.7011   11.0311 H   0  0  0  0  0  0  0  0  0  0  0  0
  -15.2840  -10.2505   11.5121 H   0  0  0  0  0  0  0  0  0  0  0  0
  -16.0749  -11.3712   12.6603 H   0  0  0  0  0  0  0  0  0  0  0  0
  1  3  2  0  0  0  0
  1  4  1  0  0  0  0
  1 21  1  0  0  0  0
  2  4  1  0  0  0  0
  2  7  1  0  0  0  0
  2 52  1  0  0  0  0
  4  5  1  0  0  0  0
  4 54  1  1  0  0  0
  5  6  1  0  0  0  0
  5 55  1  0  0  0  0
  5 56  1  0  0  0  0
  6 52  1  0  0  0  0
  6 53  1  0  0  0  0
  6 57  1  6  0  0  0
  7  8  2  0  0  0  0
  7  9  1  0  0  0  0
  9 10  1  0  0  0  0
  9 13  1  0  0  0  0
  9 58  1  6  0  0  0
 10 11  1  0  0  0  0
 10 59  1  0  0  0  0
 11 12  1  0  0  0  0
 11 14  2  0  0  0  0
 12 47  1  0  0  0  0
 13 20  1  0  0  0  0
 13 50  1  0  0  0  0
 13 51  1  0  0  0  0
 15 16  2  0  0  0  0
 15 17  1  0  0  0  0
 15 53  1  0  0  0  0
 17 26  1  0  0  0  0
 17 29  1  0  0  0  0
 18 19  1  0  0  0  0
 18 24  1  0  0  0  0
 18 60  1  0  0  0  0
 18 61  1  0  0  0  0
 19 62  1  0  0  0  0
 19 63  1  0  0  0  0
 19 64  1  0  0  0  0
 20 65  1  0  0  0  0
 20 66  1  0  0  0  0
 20 67  1  0  0  0  0
 21 68  1  0  0  0  0
 22 21  1  6  0  0  0
 22 23  1  0  0  0  0
 22 24  1  0  0  0  0
 22 25  1  0  0  0  0
 23 35  1  0  0  0  0
 23 36  2  0  0  0  0
 24 25  1  0  0  0  0
 24 69  1  6  0  0  0
 25 70  1  0  0  0  0
 25 71  1  0  0  0  0
 26 27  1  0  0  0  0
 26 72  1  0  0  0  0
 26 73  1  0  0  0  0
 27 28  2  0  0  0  0
 27 30  1  0  0  0  0
 28 29  1  0  0  0  0
 28 33  1  0  0  0  0
 29 74  1  0  0  0  0
 29 75  1  0  0  0  0
 30 31  2  0  0  0  0
 30 76  1  0  0  0  0
 31 32  1  0  0  0  0
 31 77  1  0  0  0  0
 32 33  2  0  0  0  0
 32 78  1  0  0  0  0
 33 34  1  0  0  0  0
 34 43  1  0  0  0  0
 34 79  1  0  0  0  0
 34 80  1  0  0  0  0
 35 37  1  0  0  0  0
 35 81  1  0  0  0  0
 37 38  1  0  0  0  0
 37 39  2  0  0  0  0
 37 40  2  0  0  0  0
 38 41  1  0  0  0  0
 38 42  1  0  0  0  0
 38 82  1  0  0  0  0
 41 42  1  0  0  0  0
 41 83  1  0  0  0  0
 41 84  1  0  0  0  0
 42 85  1  0  0  0  0
 42 86  1  0  0  0  0
 43 44  1  0  0  0  0
 43 87  1  0  0  0  0
 43 88  1  0  0  0  0
 44 45  1  0  0  0  0
 44 89  1  0  0  0  0
 44 90  1  0  0  0  0
 45 46  1  0  0  0  0
 45 91  1  0  0  0  0
 45 92  1  0  0  0  0
 46 47  1  0  0  0  0
 46 48  1  0  0  0  0
 46 49  1  0  0  0  0
 47 93  1  0  0  0  0
 47 94  1  0  0  0  0
 48 95  1  0  0  0  0
 48 96  1  0  0  0  0
 48 97  1  0  0  0  0
 49 98  1  0  0  0  0
 49 99  1  0  0  0  0
 49100  1  0  0  0  0
 50101  1  0  0  0  0
 50102  1  0  0  0  0
 50103  1  0  0  0  0
 51104  1  0  0  0  0
 51105  1  0  0  0  0
 51106  1  0  0  0  0
 52107  1  0  0  0  0
 52108  1  0  0  0  0
M  END
$$$$
