SU3
 OpenBabel04091915203D

106111  0  0  1  0  0  0  0  0999 V2000
  -13.1839   -8.3413   14.1186 C   0  0  0  0  0  0  0  0  0  0  0  0
  -15.0507   -9.8159   13.5752 N   0  0  0  0  0  0  0  0  0  0  0  0
  -13.3449   -7.5776   13.1684 O   0  0  0  0  0  0  0  0  0  0  0  0
  -13.6937   -9.7846   14.1228 C   0  0  1  0  0  0  0  0  0  0  0  0
  -12.8897  -10.6443   13.1502 C   0  0  0  0  0  0  0  0  0  0  0  0
  -13.9303  -11.6712   12.7036 C   0  0  2  0  0  0  0  0  0  0  0  0
  -16.0437   -9.0402   14.1226 C   0  0  0  0  0  0  0  0  0  0  0  0
  -15.8109   -8.3223   15.0997 O   0  0  0  0  0  0  0  0  0  0  0  0
  -17.4348   -9.0472   13.4568 C   0  0  1  0  0  0  0  0  0  0  0  0
  -18.4293   -9.3012   14.4867 N   0  0  0  0  0  0  0  0  0  0  0  0
  -18.9660  -10.5341   14.6448 C   0  0  0  0  0  0  0  0  0  0  0  0
  -19.8209  -10.5589   15.6960 O   0  0  0  0  0  0  0  0  0  0  0  0
  -17.7283   -7.7301   12.7025 C   0  0  0  0  0  0  0  0  0  0  0  0
  -18.7180  -11.4826   13.9072 O   0  0  0  0  0  0  0  0  0  0  0  0
  -13.4133  -13.6751   13.8927 C   0  0  0  0  0  0  0  0  0  0  0  0
  -12.4076  -13.9048   13.1765 O   0  0  0  0  0  0  0  0  0  0  0  0
  -13.7356  -14.5116   14.9800 N   0  3  0  0  0  0  0  0  0  0  0  0
  -13.6077   -4.2996   15.5104 C   0  0  0  0  0  0  0  0  0  0  0  0
  -14.0793   -4.1235   14.0797 C   0  0  0  0  0  0  0  0  0  0  0  0
  -17.8168   -6.5158   13.6343 C   0  0  0  0  0  0  0  0  0  0  0  0
  -12.5052   -7.9896   15.2666 N   0  0  0  0  0  0  0  0  0  0  0  0
  -12.2863   -6.5911   15.6070 C   0  0  1  0  0  0  0  0  0  0  0  0
  -11.0672   -5.9252   15.0042 C   0  0  0  0  0  0  0  0  0  0  0  0
  -13.5192   -5.7410   15.9202 C   0  0  1  0  0  0  0  0  0  0  0  0
  -12.5877   -6.1426   17.0342 C   0  0  0  0  0  0  0  0  0  0  0  0
  -12.9912  -15.6263   15.4243 C   0  0  0  0  0  0  0  0  0  0  0  0
  -13.5723  -16.1277   16.5568 C   0  0  0  0  0  0  0  0  0  0  0  0
  -14.7327  -15.3595   16.8370 C   0  0  0  0  0  0  0  0  0  0  0  0
  -14.8346  -14.3811   15.8544 C   0  0  0  0  0  0  0  0  0  0  0  0
  -13.1470  -17.2181   17.3445 C   0  0  0  0  0  0  0  0  0  0  0  0
  -13.9929  -17.4931   18.4546 C   0  0  0  0  0  0  0  0  0  0  0  0
  -15.1498  -16.7389   18.7279 C   0  0  0  0  0  0  0  0  0  0  0  0
  -15.5772  -15.6282   17.9466 C   0  0  0  0  0  0  0  0  0  0  0  0
  -16.8724  -15.0389   18.3366 C   0  0  0  0  0  0  0  0  0  0  0  0
  -10.2424   -6.7413   14.2587 N   0  0  0  0  0  0  0  0  0  0  0  0
  -10.7820   -4.7702   15.2498 O   0  0  0  0  0  0  0  0  0  0  0  0
   -8.9480   -6.0054   13.5416 S   0  0  0  0  0  0  0  0  0  0  0  0
   -8.2252   -7.3437   12.5661 C   0  0  0  0  0  0  0  0  0  0  0  0
   -9.4303   -5.0428   12.5800 O   0  0  0  0  0  0  0  0  0  0  0  0
   -7.9937   -5.6623   14.5733 O   0  0  0  0  0  0  0  0  0  0  0  0
   -6.8005   -7.0757   12.1768 C   0  0  0  0  0  0  0  0  0  0  0  0
   -7.1116   -8.0859   13.2590 C   0  0  0  0  0  0  0  0  0  0  0  0
  -16.8671  -13.5750   18.6941 C   0  0  0  0  0  0  0  0  0  0  0  0
  -18.3332  -13.1744   18.7683 C   0  0  0  0  0  0  0  0  0  0  0  0
  -18.8574  -12.8851   17.3681 C   0  0  0  0  0  0  0  0  0  0  0  0
  -20.2912  -12.3434   17.3174 C   0  0  0  0  0  0  0  0  0  0  0  0
  -20.4972  -11.8138   15.8908 C   0  0  0  0  0  0  0  0  0  0  0  0
  -21.3103  -13.4659   17.5529 C   0  0  0  0  0  0  0  0  0  0  0  0
  -20.4923  -11.2390   18.3556 C   0  0  0  0  0  0  0  0  0  0  0  0
  -16.6393   -7.4836   11.6559 C   0  0  0  0  0  0  0  0  0  0  0  0
  -19.0690   -7.8654   11.9716 C   0  0  0  0  0  0  0  0  0  0  0  0
  -15.1731  -10.8117   12.5155 C   0  0  0  0  0  0  0  0  0  0  0  0
  -14.2441  -12.6090   13.7609 O   0  0  0  0  0  0  0  0  0  0  0  0
  -13.6686  -10.2252   15.1297 H   0  0  0  0  0  0  0  0  0  0  0  0
  -12.0145  -11.0924   13.6232 H   0  0  0  0  0  0  0  0  0  0  0  0
  -12.5480  -10.0360   12.2995 H   0  0  0  0  0  0  0  0  0  0  0  0
  -13.6377  -12.1842   11.7738 H   0  0  0  0  0  0  0  0  0  0  0  0
  -17.4857   -9.8573   12.7226 H   0  0  0  0  0  0  0  0  0  0  0  0
  -18.6859   -8.5761   15.1425 H   0  0  0  0  0  0  0  0  0  0  0  0
  -14.2858   -3.7765   16.1899 H   0  0  0  0  0  0  0  0  0  0  0  0
  -12.6484   -3.7961   15.6212 H   0  0  0  0  0  0  0  0  0  0  0  0
  -14.1154   -3.0598   13.8187 H   0  0  0  0  0  0  0  0  0  0  0  0
  -15.0807   -4.5416   13.9511 H   0  0  0  0  0  0  0  0  0  0  0  0
  -13.4061   -4.6222   13.3754 H   0  0  0  0  0  0  0  0  0  0  0  0
  -18.0276   -5.6049   13.0668 H   0  0  0  0  0  0  0  0  0  0  0  0
  -16.8830   -6.3547   14.1764 H   0  0  0  0  0  0  0  0  0  0  0  0
  -18.6213   -6.6364   14.3665 H   0  0  0  0  0  0  0  0  0  0  0  0
  -12.3180   -8.6873   15.9754 H   0  0  0  0  0  0  0  0  0  0  0  0
  -14.4856   -6.2267   15.8493 H   0  0  0  0  0  0  0  0  0  0  0  0
  -11.9468   -5.3744   17.4638 H   0  0  0  0  0  0  0  0  0  0  0  0
  -12.8770   -6.8930   17.7555 H   0  0  0  0  0  0  0  0  0  0  0  0
  -12.0829  -15.9443   14.8737 H   0  0  0  0  0  0  0  0  0  0  0  0
  -15.5531  -13.6027   15.6878 H   0  0  0  0  0  0  0  0  0  0  0  0
  -12.2849  -17.8125   17.1689 H   0  0  0  0  0  0  0  0  0  0  0  0
  -13.7557  -18.3191   19.1272 H   0  0  0  0  0  0  0  0  0  0  0  0
  -15.7595  -17.0346   19.5911 H   0  0  0  0  0  0  0  0  0  0  0  0
  -17.2502  -15.5735   19.2188 H   0  0  0  0  0  0  0  0  0  0  0  0
  -17.5659  -15.2474   17.5245 H   0  0  0  0  0  0  0  0  0  0  0  0
  -10.4503   -7.7177   14.1154 H   0  0  0  0  0  0  0  0  0  0  0  0
   -8.8986   -7.8664   11.9069 H   0  0  0  0  0  0  0  0  0  0  0  0
   -6.3720   -6.1154   12.4505 H   0  0  0  0  0  0  0  0  0  0  0  0
   -6.4628   -7.4149   11.2062 H   0  0  0  0  0  0  0  0  0  0  0  0
   -6.9656   -9.1383   13.0494 H   0  0  0  0  0  0  0  0  0  0  0  0
   -6.8725   -7.8429   14.2912 H   0  0  0  0  0  0  0  0  0  0  0  0
  -16.3312  -12.9819   17.9476 H   0  0  0  0  0  0  0  0  0  0  0  0
  -16.3758  -13.4112   19.6611 H   0  0  0  0  0  0  0  0  0  0  0  0
  -18.4186  -12.2962   19.4052 H   0  0  0  0  0  0  0  0  0  0  0  0
  -18.9304  -13.9787   19.2194 H   0  0  0  0  0  0  0  0  0  0  0  0
  -18.8115  -13.7915   16.7485 H   0  0  0  0  0  0  0  0  0  0  0  0
  -18.1849  -12.1592   16.8972 H   0  0  0  0  0  0  0  0  0  0  0  0
  -20.1494  -12.5841   15.1912 H   0  0  0  0  0  0  0  0  0  0  0  0
  -21.5598  -11.6522   15.7035 H   0  0  0  0  0  0  0  0  0  0  0  0
  -21.2235  -13.8861   18.5584 H   0  0  0  0  0  0  0  0  0  0  0  0
  -21.1756  -14.2765   16.8275 H   0  0  0  0  0  0  0  0  0  0  0  0
  -22.3316  -13.0843   17.4352 H   0  0  0  0  0  0  0  0  0  0  0  0
  -19.7516  -10.4434   18.2229 H   0  0  0  0  0  0  0  0  0  0  0  0
  -20.3864  -11.6268   19.3748 H   0  0  0  0  0  0  0  0  0  0  0  0
  -21.4912  -10.8055   18.2808 H   0  0  0  0  0  0  0  0  0  0  0  0
  -16.5562   -8.3407   10.9796 H   0  0  0  0  0  0  0  0  0  0  0  0
  -15.6696   -7.3265   12.1320 H   0  0  0  0  0  0  0  0  0  0  0  0
  -16.8647   -6.5958   11.0592 H   0  0  0  0  0  0  0  0  0  0  0  0
  -19.8839   -8.0349   12.6821 H   0  0  0  0  0  0  0  0  0  0  0  0
  -19.0437   -8.7059   11.2703 H   0  0  0  0  0  0  0  0  0  0  0  0
  -19.2960   -6.9543   11.4085 H   0  0  0  0  0  0  0  0  0  0  0  0
  -15.1787  -10.2875   11.5519 H   0  0  0  0  0  0  0  0  0  0  0  0
  -16.0921  -11.3888   12.6389 H   0  0  0  0  0  0  0  0  0  0  0  0
  1  3  2  0  0  0  0
  1  4  1  0  0  0  0
  1 21  1  0  0  0  0
  2  4  1  0  0  0  0
  2  7  1  0  0  0  0
  2 52  1  0  0  0  0
  4  5  1  0  0  0  0
  4 54  1  1  0  0  0
  5  6  1  0  0  0  0
  5 55  1  0  0  0  0
  5 56  1  0  0  0  0
  6 52  1  0  0  0  0
  6 53  1  0  0  0  0
  6 57  1  6  0  0  0
  7  8  2  0  0  0  0
  7  9  1  0  0  0  0
  9 10  1  0  0  0  0
  9 13  1  0  0  0  0
  9 58  1  6  0  0  0
 10 11  1  0  0  0  0
 10 59  1  0  0  0  0
 11 12  1  0  0  0  0
 11 14  2  0  0  0  0
 12 47  1  0  0  0  0
 13 20  1  0  0  0  0
 13 50  1  0  0  0  0
 13 51  1  0  0  0  0
 15 16  2  0  0  0  0
 15 17  1  0  0  0  0
 15 53  1  0  0  0  0
 17 26  1  0  0  0  0
 17 29  1  0  0  0  0
 18 19  1  0  0  0  0
 18 24  1  0  0  0  0
 18 60  1  0  0  0  0
 18 61  1  0  0  0  0
 19 62  1  0  0  0  0
 19 63  1  0  0  0  0
 19 64  1  0  0  0  0
 20 65  1  0  0  0  0
 20 66  1  0  0  0  0
 20 67  1  0  0  0  0
 21 68  1  0  0  0  0
 22 21  1  6  0  0  0
 22 23  1  0  0  0  0
 22 24  1  0  0  0  0
 22 25  1  0  0  0  0
 23 35  1  0  0  0  0
 23 36  2  0  0  0  0
 24 25  1  0  0  0  0
 24 69  1  6  0  0  0
 25 70  1  0  0  0  0
 25 71  1  0  0  0  0
 26 27  2  0  0  0  0
 26 72  1  0  0  0  0
 27 28  1  0  0  0  0
 27 30  1  0  0  0  0
 28 29  2  0  0  0  0
 28 33  1  0  0  0  0
 29 73  1  0  0  0  0
 30 31  2  0  0  0  0
 30 74  1  0  0  0  0
 31 32  1  0  0  0  0
 31 75  1  0  0  0  0
 32 33  2  0  0  0  0
 32 76  1  0  0  0  0
 33 34  1  0  0  0  0
 34 43  1  0  0  0  0
 34 77  1  0  0  0  0
 34 78  1  0  0  0  0
 35 37  1  0  0  0  0
 35 79  1  0  0  0  0
 37 38  1  0  0  0  0
 37 39  2  0  0  0  0
 37 40  2  0  0  0  0
 38 41  1  0  0  0  0
 38 42  1  0  0  0  0
 38 80  1  0  0  0  0
 41 42  1  0  0  0  0
 41 81  1  0  0  0  0
 41 82  1  0  0  0  0
 42 83  1  0  0  0  0
 42 84  1  0  0  0  0
 43 44  1  0  0  0  0
 43 85  1  0  0  0  0
 43 86  1  0  0  0  0
 44 45  1  0  0  0  0
 44 87  1  0  0  0  0
 44 88  1  0  0  0  0
 45 46  1  0  0  0  0
 45 89  1  0  0  0  0
 45 90  1  0  0  0  0
 46 47  1  0  0  0  0
 46 48  1  0  0  0  0
 46 49  1  0  0  0  0
 47 91  1  0  0  0  0
 47 92  1  0  0  0  0
 48 93  1  0  0  0  0
 48 94  1  0  0  0  0
 48 95  1  0  0  0  0
 49 96  1  0  0  0  0
 49 97  1  0  0  0  0
 49 98  1  0  0  0  0
 50 99  1  0  0  0  0
 50100  1  0  0  0  0
 50101  1  0  0  0  0
 51102  1  0  0  0  0
 51103  1  0  0  0  0
 51104  1  0  0  0  0
 52105  1  0  0  0  0
 52106  1  0  0  0  0
M  CHG  1  17   1
M  END
$$$$
