SU3
 OpenBabel04091915203D

106111  0  0  1  0  0  0  0  0999 V2000
   37.7768   -0.3768    3.9567 C   0  0  0  0  0  0  0  0  0  0  0  0
   39.7509   -1.2833    5.0733 N   0  0  0  0  0  0  0  0  0  0  0  0
   37.9467   -0.9270    2.8699 O   0  0  0  0  0  0  0  0  0  0  0  0
   38.9277   -0.0741    4.9175 C   0  0  1  0  0  0  0  0  0  0  0  0
   39.8992    0.9560    4.3192 C   0  0  0  0  0  0  0  0  0  0  0  0
   41.2428    0.5038    4.8906 C   0  0  2  0  0  0  0  0  0  0  0  0
   39.2232   -2.4805    5.5123 C   0  0  0  0  0  0  0  0  0  0  0  0
   38.0152   -2.5752    5.7500 O   0  0  0  0  0  0  0  0  0  0  0  0
   40.1586   -3.7244    5.6357 C   0  0  1  0  0  0  0  0  0  0  0  0
   39.8096   -4.4214    6.8797 N   0  0  0  0  0  0  0  0  0  0  0  0
   40.4594   -4.1688    8.0407 C   0  0  0  0  0  0  0  0  0  0  0  0
   39.9307   -4.8734    9.0747 O   0  0  0  0  0  0  0  0  0  0  0  0
   40.0503   -4.6944    4.4312 C   0  0  0  0  0  0  0  0  0  0  0  0
   41.4236   -3.4069    8.1190 O   0  0  0  0  0  0  0  0  0  0  0  0
   41.6996    2.0990    6.5577 C   0  0  0  0  0  0  0  0  0  0  0  0
   41.9603    2.9262    5.7199 O   0  0  0  0  0  0  0  0  0  0  0  0
   41.7000    2.4502    7.9264 N   0  3  0  0  0  0  0  0  0  0  0  0
   34.1787   -2.5315    2.6991 C   0  0  0  0  0  0  0  0  0  0  0  0
   35.1494   -3.1587    1.7183 C   0  0  0  0  0  0  0  0  0  0  0  0
   38.6002   -5.1250    4.1904 C   0  0  0  0  0  0  0  0  0  0  0  0
   36.5379    0.0379    4.4065 N   0  0  0  0  0  0  0  0  0  0  0  0
   35.3184   -0.3698    3.7137 C   0  0  1  0  0  0  0  0  0  0  0  0
   35.0056    0.3729    2.4294 C   0  0  0  0  0  0  0  0  0  0  0  0
   34.8713   -1.8304    3.8349 C   0  0  1  0  0  0  0  0  0  0  0  0
   34.1245   -0.7568    4.5810 C   0  0  0  0  0  0  0  0  0  0  0  0
   41.9603    3.7148    8.4766 C   0  0  0  0  0  0  0  0  0  0  0  0
   41.8170    3.6364    9.8468 C   0  0  0  0  0  0  0  0  0  0  0  0
   41.4741    2.3035   10.1718 C   0  0  0  0  0  0  0  0  0  0  0  0
   41.4106    1.5810    8.9886 C   0  0  0  0  0  0  0  0  0  0  0  0
   41.9694    4.6501   10.8054 C   0  0  0  0  0  0  0  0  0  0  0  0
   41.7443    4.1962   12.1324 C   0  0  0  0  0  0  0  0  0  0  0  0
   41.4086    2.8516   12.4446 C   0  0  0  0  0  0  0  0  0  0  0  0
   41.2526    1.8349   11.4637 C   0  0  0  0  0  0  0  0  0  0  0  0
   40.9477    0.4452   11.8741 C   0  0  0  0  0  0  0  0  0  0  0  0
   35.8091    1.4653    2.1257 N   0  0  0  0  0  0  0  0  0  0  0  0
   34.0528    0.0830    1.7188 O   0  0  0  0  0  0  0  0  0  0  0  0
   35.4988    2.2643    0.7111 S   0  0  0  0  0  0  0  0  0  0  0  0
   36.7622    3.5637    0.6674 C   0  0  0  0  0  0  0  0  0  0  0  0
   35.7927    1.3857   -0.3964 O   0  0  0  0  0  0  0  0  0  0  0  0
   34.2165    2.9231    0.8516 O   0  0  0  0  0  0  0  0  0  0  0  0
   36.4460    4.6754   -0.2921 C   0  0  0  0  0  0  0  0  0  0  0  0
   36.2737    4.8882    1.1942 C   0  0  0  0  0  0  0  0  0  0  0  0
   39.5309    0.0233   11.5114 C   0  0  0  0  0  0  0  0  0  0  0  0
   39.3101   -1.4170   11.9559 C   0  0  0  0  0  0  0  0  0  0  0  0
   39.8620   -2.4079   10.9322 C   0  0  0  0  0  0  0  0  0  0  0  0
   39.7793   -3.8925   11.3513 C   0  0  0  0  0  0  0  0  0  0  0  0
   40.6086   -4.7044   10.3332 C   0  0  0  0  0  0  0  0  0  0  0  0
   40.4210   -4.1058   12.7332 C   0  0  0  0  0  0  0  0  0  0  0  0
   38.3215   -4.3704   11.3824 C   0  0  0  0  0  0  0  0  0  0  0  0
   40.6003   -4.0300    3.1655 C   0  0  0  0  0  0  0  0  0  0  0  0
   40.8655   -5.9730    4.6968 C   0  0  0  0  0  0  0  0  0  0  0  0
   41.1520   -1.0057    4.8154 C   0  0  0  0  0  0  0  0  0  0  0  0
   41.3330    0.8389    6.3010 O   0  0  0  0  0  0  0  0  0  0  0  0
   38.5632    0.2825    5.8894 H   0  0  0  0  0  0  0  0  0  0  0  0
   39.6371    1.9856    4.5915 H   0  0  0  0  0  0  0  0  0  0  0  0
   39.9189    0.8970    3.2219 H   0  0  0  0  0  0  0  0  0  0  0  0
   42.1003    0.9006    4.3469 H   0  0  0  0  0  0  0  0  0  0  0  0
   41.2036   -3.4028    5.7211 H   0  0  0  0  0  0  0  0  0  0  0  0
   38.9760   -4.9872    6.9163 H   0  0  0  0  0  0  0  0  0  0  0  0
   33.4953   -3.2851    3.0944 H   0  0  0  0  0  0  0  0  0  0  0  0
   33.5287   -1.8549    2.1493 H   0  0  0  0  0  0  0  0  0  0  0  0
   34.6001   -3.6176    0.8892 H   0  0  0  0  0  0  0  0  0  0  0  0
   35.7408   -3.9329    2.2129 H   0  0  0  0  0  0  0  0  0  0  0  0
   35.8366   -2.4164    1.2980 H   0  0  0  0  0  0  0  0  0  0  0  0
   38.5333   -5.8258    3.3533 H   0  0  0  0  0  0  0  0  0  0  0  0
   37.9695   -4.2664    3.9520 H   0  0  0  0  0  0  0  0  0  0  0  0
   38.1876   -5.6248    5.0726 H   0  0  0  0  0  0  0  0  0  0  0  0
   36.4441    0.4674    5.3205 H   0  0  0  0  0  0  0  0  0  0  0  0
   35.5132   -2.5098    4.3881 H   0  0  0  0  0  0  0  0  0  0  0  0
   33.1295   -0.4936    4.2282 H   0  0  0  0  0  0  0  0  0  0  0  0
   34.2138   -0.6899    5.6583 H   0  0  0  0  0  0  0  0  0  0  0  0
   42.2110    4.5465    7.8271 H   0  0  0  0  0  0  0  0  0  0  0  0
   41.1898    0.5401    8.8018 H   0  0  0  0  0  0  0  0  0  0  0  0
   42.2317    5.6771   10.6104 H   0  0  0  0  0  0  0  0  0  0  0  0
   41.8323    4.9015   12.9628 H   0  0  0  0  0  0  0  0  0  0  0  0
   41.2744    2.5864   13.4982 H   0  0  0  0  0  0  0  0  0  0  0  0
   41.0896    0.3618   12.9577 H   0  0  0  0  0  0  0  0  0  0  0  0
   41.6869   -0.2023   11.3973 H   0  0  0  0  0  0  0  0  0  0  0  0
   36.5865    1.7182    2.7222 H   0  0  0  0  0  0  0  0  0  0  0  0
   37.7844    3.2549    0.8237 H   0  0  0  0  0  0  0  0  0  0  0  0
   35.5682    4.5670   -0.9230 H   0  0  0  0  0  0  0  0  0  0  0  0
   37.2662    5.1680   -0.8003 H   0  0  0  0  0  0  0  0  0  0  0  0
   36.9619    5.5428    1.7127 H   0  0  0  0  0  0  0  0  0  0  0  0
   35.2669    4.9562    1.5990 H   0  0  0  0  0  0  0  0  0  0  0  0
   39.3555    0.1199   10.4342 H   0  0  0  0  0  0  0  0  0  0  0  0
   38.8078    0.6775   12.0143 H   0  0  0  0  0  0  0  0  0  0  0  0
   38.2416   -1.5906   12.0972 H   0  0  0  0  0  0  0  0  0  0  0  0
   39.8020   -1.5571   12.9241 H   0  0  0  0  0  0  0  0  0  0  0  0
   40.9138   -2.1628   10.7353 H   0  0  0  0  0  0  0  0  0  0  0  0
   39.3296   -2.2729    9.9825 H   0  0  0  0  0  0  0  0  0  0  0  0
   41.5826   -4.2114   10.2131 H   0  0  0  0  0  0  0  0  0  0  0  0
   40.8242   -5.6972   10.7419 H   0  0  0  0  0  0  0  0  0  0  0  0
   39.8749   -3.5832   13.5236 H   0  0  0  0  0  0  0  0  0  0  0  0
   41.4577   -3.7502   12.7365 H   0  0  0  0  0  0  0  0  0  0  0  0
   40.4291   -5.1679   13.0003 H   0  0  0  0  0  0  0  0  0  0  0  0
   37.8349   -4.2224   10.4125 H   0  0  0  0  0  0  0  0  0  0  0  0
   37.7357   -3.8281   12.1320 H   0  0  0  0  0  0  0  0  0  0  0  0
   38.2638   -5.4365   11.6282 H   0  0  0  0  0  0  0  0  0  0  0  0
   41.6453   -3.7300    3.3047 H   0  0  0  0  0  0  0  0  0  0  0  0
   40.0172   -3.1416    2.9085 H   0  0  0  0  0  0  0  0  0  0  0  0
   40.5589   -4.7121    2.3100 H   0  0  0  0  0  0  0  0  0  0  0  0
   40.4982   -6.4977    5.5856 H   0  0  0  0  0  0  0  0  0  0  0  0
   41.9246   -5.7432    4.8464 H   0  0  0  0  0  0  0  0  0  0  0  0
   40.7786   -6.6686    3.8547 H   0  0  0  0  0  0  0  0  0  0  0  0
   41.3850   -1.3576    3.8096 H   0  0  0  0  0  0  0  0  0  0  0  0
   41.7823   -1.4775    5.5625 H   0  0  0  0  0  0  0  0  0  0  0  0
  1  3  2  0  0  0  0
  1  4  1  0  0  0  0
  1 21  1  0  0  0  0
  2  4  1  0  0  0  0
  2  7  1  0  0  0  0
  2 52  1  0  0  0  0
  4  5  1  0  0  0  0
  4 54  1  1  0  0  0
  5  6  1  0  0  0  0
  5 55  1  0  0  0  0
  5 56  1  0  0  0  0
  6 52  1  0  0  0  0
  6 53  1  0  0  0  0
  6 57  1  6  0  0  0
  7  8  2  0  0  0  0
  7  9  1  0  0  0  0
  9 10  1  0  0  0  0
  9 13  1  0  0  0  0
  9 58  1  1  0  0  0
 10 11  1  0  0  0  0
 10 59  1  0  0  0  0
 11 12  1  0  0  0  0
 11 14  2  0  0  0  0
 12 47  1  0  0  0  0
 13 20  1  0  0  0  0
 13 50  1  0  0  0  0
 13 51  1  0  0  0  0
 15 16  2  0  0  0  0
 15 17  1  0  0  0  0
 15 53  1  0  0  0  0
 17 26  1  0  0  0  0
 17 29  1  0  0  0  0
 18 19  1  0  0  0  0
 18 24  1  0  0  0  0
 18 60  1  0  0  0  0
 18 61  1  0  0  0  0
 19 62  1  0  0  0  0
 19 63  1  0  0  0  0
 19 64  1  0  0  0  0
 20 65  1  0  0  0  0
 20 66  1  0  0  0  0
 20 67  1  0  0  0  0
 21 68  1  0  0  0  0
 22 21  1  1  0  0  0
 22 23  1  0  0  0  0
 22 24  1  0  0  0  0
 22 25  1  0  0  0  0
 23 35  1  0  0  0  0
 23 36  2  0  0  0  0
 24 25  1  0  0  0  0
 24 69  1  1  0  0  0
 25 70  1  0  0  0  0
 25 71  1  0  0  0  0
 26 27  2  0  0  0  0
 26 72  1  0  0  0  0
 27 28  1  0  0  0  0
 27 30  1  0  0  0  0
 28 29  2  0  0  0  0
 28 33  1  0  0  0  0
 29 73  1  0  0  0  0
 30 31  2  0  0  0  0
 30 74  1  0  0  0  0
 31 32  1  0  0  0  0
 31 75  1  0  0  0  0
 32 33  2  0  0  0  0
 32 76  1  0  0  0  0
 33 34  1  0  0  0  0
 34 43  1  0  0  0  0
 34 77  1  0  0  0  0
 34 78  1  0  0  0  0
 35 37  1  0  0  0  0
 35 79  1  0  0  0  0
 37 38  1  0  0  0  0
 37 39  2  0  0  0  0
 37 40  2  0  0  0  0
 38 41  1  0  0  0  0
 38 42  1  0  0  0  0
 38 80  1  0  0  0  0
 41 42  1  0  0  0  0
 41 81  1  0  0  0  0
 41 82  1  0  0  0  0
 42 83  1  0  0  0  0
 42 84  1  0  0  0  0
 43 44  1  0  0  0  0
 43 85  1  0  0  0  0
 43 86  1  0  0  0  0
 44 45  1  0  0  0  0
 44 87  1  0  0  0  0
 44 88  1  0  0  0  0
 45 46  1  0  0  0  0
 45 89  1  0  0  0  0
 45 90  1  0  0  0  0
 46 47  1  0  0  0  0
 46 48  1  0  0  0  0
 46 49  1  0  0  0  0
 47 91  1  0  0  0  0
 47 92  1  0  0  0  0
 48 93  1  0  0  0  0
 48 94  1  0  0  0  0
 48 95  1  0  0  0  0
 49 96  1  0  0  0  0
 49 97  1  0  0  0  0
 49 98  1  0  0  0  0
 50 99  1  0  0  0  0
 50100  1  0  0  0  0
 50101  1  0  0  0  0
 51102  1  0  0  0  0
 51103  1  0  0  0  0
 51104  1  0  0  0  0
 52105  1  0  0  0  0
 52106  1  0  0  0  0
M  CHG  1  17   1
M  END
$$$$
