SU3
 OpenBabel04091915193D

106111  0  0  1  0  0  0  0  0999 V2000
  -13.1503   -8.3156   14.2881 C   0  0  0  0  0  0  0  0  0  0  0  0
  -15.0682   -9.7506   13.7166 N   0  0  0  0  0  0  0  0  0  0  0  0
  -13.2466   -7.5601   13.3238 O   0  0  0  0  0  0  0  0  0  0  0  0
  -13.7267   -9.7425   14.2945 C   0  0  1  0  0  0  0  0  0  0  0  0
  -12.9196  -10.6590   13.3668 C   0  0  0  0  0  0  0  0  0  0  0  0
  -13.9645  -11.6713   12.8992 C   0  0  2  0  0  0  0  0  0  0  0  0
  -16.0768   -9.0117   14.2975 C   0  0  0  0  0  0  0  0  0  0  0  0
  -15.8725   -8.3726   15.3346 O   0  0  0  0  0  0  0  0  0  0  0  0
  -17.4506   -8.9755   13.5928 C   0  0  1  0  0  0  0  0  0  0  0  0
  -18.4515   -9.2446   14.6084 N   0  0  0  0  0  0  0  0  0  0  0  0
  -18.9902  -10.4791   14.7499 C   0  0  0  0  0  0  0  0  0  0  0  0
  -19.8525  -10.4772   15.7862 O   0  0  0  0  0  0  0  0  0  0  0  0
  -17.7394   -7.6664   12.8191 C   0  0  0  0  0  0  0  0  0  0  0  0
  -18.7428  -11.4410   14.0249 O   0  0  0  0  0  0  0  0  0  0  0  0
  -13.4445  -13.6875   14.0602 C   0  0  0  0  0  0  0  0  0  0  0  0
  -12.5034  -13.9759   13.3421 O   0  0  0  0  0  0  0  0  0  0  0  0
  -13.7922  -14.4705   15.1815 N   0  3  0  0  0  0  0  0  0  0  0  0
  -13.6302   -4.2518   15.7623 C   0  0  0  0  0  0  0  0  0  0  0  0
  -14.1194   -4.0523   14.3366 C   0  0  0  0  0  0  0  0  0  0  0  0
  -19.0738   -7.8281   12.0573 C   0  0  0  0  0  0  0  0  0  0  0  0
  -12.4748   -7.9652   15.4439 N   0  0  0  0  0  0  0  0  0  0  0  0
  -12.2707   -6.5515   15.7982 C   0  0  1  0  0  0  0  0  0  0  0  0
  -11.0382   -5.8839   15.2301 C   0  0  0  0  0  0  0  0  0  0  0  0
  -13.5143   -5.7099   16.1137 C   0  0  1  0  0  0  0  0  0  0  0  0
  -12.6109   -6.1477   17.2310 C   0  0  0  0  0  0  0  0  0  0  0  0
  -13.1567  -15.6584   15.5770 C   0  0  0  0  0  0  0  0  0  0  0  0
  -13.7378  -16.0863   16.7435 C   0  0  0  0  0  0  0  0  0  0  0  0
  -14.7497  -15.1586   17.0883 C   0  0  0  0  0  0  0  0  0  0  0  0
  -14.7886  -14.1930   16.1150 C   0  0  0  0  0  0  0  0  0  0  0  0
  -13.3919  -17.2076   17.4905 C   0  0  0  0  0  0  0  0  0  0  0  0
  -14.1986  -17.3062   18.6534 C   0  0  0  0  0  0  0  0  0  0  0  0
  -15.2198  -16.3568   19.0066 C   0  0  0  0  0  0  0  0  0  0  0  0
  -15.5442  -15.2120   18.2345 C   0  0  0  0  0  0  0  0  0  0  0  0
  -16.5107  -14.1729   18.6712 C   0  0  0  0  0  0  0  0  0  0  0  0
  -10.2291   -6.6728   14.4251 N   0  0  0  0  0  0  0  0  0  0  0  0
  -10.7305   -4.7367   15.5433 O   0  0  0  0  0  0  0  0  0  0  0  0
   -8.9332   -5.9813   13.6658 S   0  0  0  0  0  0  0  0  0  0  0  0
   -8.2117   -7.3492   12.7252 C   0  0  0  0  0  0  0  0  0  0  0  0
   -9.4188   -5.0558   12.6681 O   0  0  0  0  0  0  0  0  0  0  0  0
   -7.9727   -5.6013   14.6795 O   0  0  0  0  0  0  0  0  0  0  0  0
   -6.7980   -7.0982   12.2916 C   0  0  0  0  0  0  0  0  0  0  0  0
   -7.0838   -8.0530   13.4248 C   0  0  0  0  0  0  0  0  0  0  0  0
  -17.9386  -14.6532   18.8656 C   0  0  0  0  0  0  0  0  0  0  0  0
  -18.8396  -13.4235   18.9392 C   0  0  0  0  0  0  0  0  0  0  0  0
  -19.1198  -12.8590   17.5386 C   0  0  0  0  0  0  0  0  0  0  0  0
  -20.5098  -12.2019   17.3931 C   0  0  0  0  0  0  0  0  0  0  0  0
  -20.6384  -11.6633   15.9523 C   0  0  0  0  0  0  0  0  0  0  0  0
  -21.6132  -13.2584   17.5865 C   0  0  0  0  0  0  0  0  0  0  0  0
  -20.6712  -11.0681   18.4190 C   0  0  0  0  0  0  0  0  0  0  0  0
  -17.8537   -6.4441   13.7468 C   0  0  0  0  0  0  0  0  0  0  0  0
  -16.6300   -7.4103   11.7827 C   0  0  0  0  0  0  0  0  0  0  0  0
  -15.1994  -10.7878   12.6957 C   0  0  0  0  0  0  0  0  0  0  0  0
  -14.2570  -12.6030   13.9651 O   0  0  0  0  0  0  0  0  0  0  0  0
  -13.7810  -10.1499   15.3110 H   0  0  0  0  0  0  0  0  0  0  0  0
  -12.0734  -11.1147   13.8883 H   0  0  0  0  0  0  0  0  0  0  0  0
  -12.5318  -10.0990   12.5053 H   0  0  0  0  0  0  0  0  0  0  0  0
  -13.6942  -12.2039   11.9803 H   0  0  0  0  0  0  0  0  0  0  0  0
  -17.4965   -9.7845   12.8593 H   0  0  0  0  0  0  0  0  0  0  0  0
  -18.5909   -8.5955   15.3706 H   0  0  0  0  0  0  0  0  0  0  0  0
  -14.3297   -3.7717   16.4557 H   0  0  0  0  0  0  0  0  0  0  0  0
  -12.6904   -3.7102   15.8891 H   0  0  0  0  0  0  0  0  0  0  0  0
  -14.1530   -2.9852   14.0934 H   0  0  0  0  0  0  0  0  0  0  0  0
  -15.1258   -4.4623   14.2100 H   0  0  0  0  0  0  0  0  0  0  0  0
  -13.4605   -4.5452   13.6143 H   0  0  0  0  0  0  0  0  0  0  0  0
  -19.3247   -6.9199   11.4979 H   0  0  0  0  0  0  0  0  0  0  0  0
  -19.9052   -8.0330   12.7403 H   0  0  0  0  0  0  0  0  0  0  0  0
  -19.0212   -8.6575   11.3428 H   0  0  0  0  0  0  0  0  0  0  0  0
  -12.4148   -8.6329   16.2049 H   0  0  0  0  0  0  0  0  0  0  0  0
  -14.4856   -6.1937   16.0549 H   0  0  0  0  0  0  0  0  0  0  0  0
  -11.9858   -5.3973   17.7079 H   0  0  0  0  0  0  0  0  0  0  0  0
  -12.9672   -6.9054   17.9179 H   0  0  0  0  0  0  0  0  0  0  0  0
  -12.3498  -16.0517   14.9776 H   0  0  0  0  0  0  0  0  0  0  0  0
  -15.4159  -13.3199   15.9907 H   0  0  0  0  0  0  0  0  0  0  0  0
  -12.6164  -17.9187   17.2510 H   0  0  0  0  0  0  0  0  0  0  0  0
  -14.0292  -18.1389   19.3346 H   0  0  0  0  0  0  0  0  0  0  0  0
  -15.7597  -16.5260   19.9418 H   0  0  0  0  0  0  0  0  0  0  0  0
  -16.5078  -13.3674   17.9320 H   0  0  0  0  0  0  0  0  0  0  0  0
  -16.1465  -13.7223   19.6012 H   0  0  0  0  0  0  0  0  0  0  0  0
  -10.5325   -7.5989   14.1566 H   0  0  0  0  0  0  0  0  0  0  0  0
   -8.8719   -7.8994   12.0742 H   0  0  0  0  0  0  0  0  0  0  0  0
   -6.3575   -6.1323   12.5207 H   0  0  0  0  0  0  0  0  0  0  0  0
   -6.4929   -7.5044   11.3359 H   0  0  0  0  0  0  0  0  0  0  0  0
   -6.9664   -9.1140   13.2489 H   0  0  0  0  0  0  0  0  0  0  0  0
   -6.8072   -7.7459   14.4289 H   0  0  0  0  0  0  0  0  0  0  0  0
  -18.0229  -15.2277   19.7955 H   0  0  0  0  0  0  0  0  0  0  0  0
  -18.2647  -15.3221   18.0575 H   0  0  0  0  0  0  0  0  0  0  0  0
  -18.3601  -12.6428   19.5451 H   0  0  0  0  0  0  0  0  0  0  0  0
  -19.7529  -13.6990   19.4670 H   0  0  0  0  0  0  0  0  0  0  0  0
  -19.0297  -13.6547   16.7861 H   0  0  0  0  0  0  0  0  0  0  0  0
  -18.3361  -12.1302   17.2876 H   0  0  0  0  0  0  0  0  0  0  0  0
  -20.3691  -12.4517   15.2396 H   0  0  0  0  0  0  0  0  0  0  0  0
  -21.6767  -11.3875   15.7375 H   0  0  0  0  0  0  0  0  0  0  0  0
  -21.6201  -13.6803   18.5949 H   0  0  0  0  0  0  0  0  0  0  0  0
  -21.4862  -14.0875   16.8804 H   0  0  0  0  0  0  0  0  0  0  0  0
  -22.6035  -12.8228   17.4190 H   0  0  0  0  0  0  0  0  0  0  0  0
  -19.8754  -10.3204   18.3197 H   0  0  0  0  0  0  0  0  0  0  0  0
  -20.6329  -11.4431   19.4469 H   0  0  0  0  0  0  0  0  0  0  0  0
  -21.6310  -10.5585   18.2906 H   0  0  0  0  0  0  0  0  0  0  0  0
  -16.9304   -6.2746   14.3086 H   0  0  0  0  0  0  0  0  0  0  0  0
  -18.6708   -6.5592   14.4661 H   0  0  0  0  0  0  0  0  0  0  0  0
  -18.0570   -5.5341   13.1702 H   0  0  0  0  0  0  0  0  0  0  0  0
  -16.5179   -8.2661   11.1077 H   0  0  0  0  0  0  0  0  0  0  0  0
  -15.6646   -7.2336   12.2658 H   0  0  0  0  0  0  0  0  0  0  0  0
  -16.8541   -6.5299   11.1701 H   0  0  0  0  0  0  0  0  0  0  0  0
  -15.1819  -10.2860   11.7228 H   0  0  0  0  0  0  0  0  0  0  0  0
  -16.1279  -11.3511   12.8168 H   0  0  0  0  0  0  0  0  0  0  0  0
  1  3  2  0  0  0  0
  1  4  1  0  0  0  0
  1 21  1  0  0  0  0
  2  4  1  0  0  0  0
  2  7  1  0  0  0  0
  2 52  1  0  0  0  0
  4  5  1  0  0  0  0
  4 54  1  1  0  0  0
  5  6  1  0  0  0  0
  5 55  1  0  0  0  0
  5 56  1  0  0  0  0
  6 52  1  0  0  0  0
  6 53  1  0  0  0  0
  6 57  1  6  0  0  0
  7  8  2  0  0  0  0
  7  9  1  0  0  0  0
  9 10  1  0  0  0  0
  9 13  1  0  0  0  0
  9 58  1  6  0  0  0
 10 11  1  0  0  0  0
 10 59  1  0  0  0  0
 11 12  1  0  0  0  0
 11 14  2  0  0  0  0
 12 47  1  0  0  0  0
 13 20  1  0  0  0  0
 13 50  1  0  0  0  0
 13 51  1  0  0  0  0
 15 16  2  0  0  0  0
 15 17  1  0  0  0  0
 15 53  1  0  0  0  0
 17 26  1  0  0  0  0
 17 29  1  0  0  0  0
 18 19  1  0  0  0  0
 18 24  1  0  0  0  0
 18 60  1  0  0  0  0
 18 61  1  0  0  0  0
 19 62  1  0  0  0  0
 19 63  1  0  0  0  0
 19 64  1  0  0  0  0
 20 65  1  0  0  0  0
 20 66  1  0  0  0  0
 20 67  1  0  0  0  0
 21 68  1  0  0  0  0
 22 21  1  6  0  0  0
 22 23  1  0  0  0  0
 22 24  1  0  0  0  0
 22 25  1  0  0  0  0
 23 35  1  0  0  0  0
 23 36  2  0  0  0  0
 24 25  1  0  0  0  0
 24 69  1  6  0  0  0
 25 70  1  0  0  0  0
 25 71  1  0  0  0  0
 26 27  2  0  0  0  0
 26 72  1  0  0  0  0
 27 28  1  0  0  0  0
 27 30  1  0  0  0  0
 28 29  2  0  0  0  0
 28 33  1  0  0  0  0
 29 73  1  0  0  0  0
 30 31  2  0  0  0  0
 30 74  1  0  0  0  0
 31 32  1  0  0  0  0
 31 75  1  0  0  0  0
 32 33  2  0  0  0  0
 32 76  1  0  0  0  0
 33 34  1  0  0  0  0
 34 43  1  0  0  0  0
 34 77  1  0  0  0  0
 34 78  1  0  0  0  0
 35 37  1  0  0  0  0
 35 79  1  0  0  0  0
 37 38  1  0  0  0  0
 37 39  2  0  0  0  0
 37 40  2  0  0  0  0
 38 41  1  0  0  0  0
 38 42  1  0  0  0  0
 38 80  1  0  0  0  0
 41 42  1  0  0  0  0
 41 81  1  0  0  0  0
 41 82  1  0  0  0  0
 42 83  1  0  0  0  0
 42 84  1  0  0  0  0
 43 44  1  0  0  0  0
 43 85  1  0  0  0  0
 43 86  1  0  0  0  0
 44 45  1  0  0  0  0
 44 87  1  0  0  0  0
 44 88  1  0  0  0  0
 45 46  1  0  0  0  0
 45 89  1  0  0  0  0
 45 90  1  0  0  0  0
 46 47  1  0  0  0  0
 46 48  1  0  0  0  0
 46 49  1  0  0  0  0
 47 91  1  0  0  0  0
 47 92  1  0  0  0  0
 48 93  1  0  0  0  0
 48 94  1  0  0  0  0
 48 95  1  0  0  0  0
 49 96  1  0  0  0  0
 49 97  1  0  0  0  0
 49 98  1  0  0  0  0
 50 99  1  0  0  0  0
 50100  1  0  0  0  0
 50101  1  0  0  0  0
 51102  1  0  0  0  0
 51103  1  0  0  0  0
 51104  1  0  0  0  0
 52105  1  0  0  0  0
 52106  1  0  0  0  0
M  CHG  1  17   1
M  END
$$$$
