SX3
 OpenBabel04091911133D

 37 38  0  0  1  0  0  0  0  0999 V2000
  -19.2780    9.2175  -14.4074 Br  0  0  0  0  0  0  0  0  0  0  0  0
  -20.8171    8.5908  -15.3098 C   0  0  0  0  0  0  0  0  0  0  0  0
  -21.8336    9.5033  -15.6254 C   0  0  0  0  0  0  0  0  0  0  0  0
  -20.9446    7.2445  -15.6381 C   0  0  0  0  0  0  0  0  0  0  0  0
  -22.1138    6.8117  -16.2958 C   0  0  0  0  0  0  0  0  0  0  0  0
  -23.1490    7.7120  -16.6369 C   0  0  0  0  0  0  0  0  0  0  0  0
  -24.2655    7.2207  -17.2958 N   0  0  0  0  0  0  0  0  0  0  0  0
  -23.0003    9.0689  -16.2743 C   0  0  0  0  0  0  0  0  0  0  0  0
  -23.9873   10.1308  -16.6508 C   0  0  0  0  0  0  0  0  0  0  0  0
  -23.5945   10.9519  -17.4564 O   0  0  0  0  0  0  0  0  0  0  0  0
  -25.2534   10.2258  -16.0469 N   0  0  0  0  0  0  0  0  0  0  0  0
  -25.6499    9.3733  -14.9474 C   0  0  0  0  0  0  0  0  0  0  0  0
  -26.1177   10.1763  -13.7411 C   0  0  2  0  0  0  0  0  0  0  0  0
  -26.5811    9.2136  -12.6646 C   0  0  0  0  0  0  0  0  0  0  0  0
  -27.2414   11.1282  -14.1345 C   0  0  0  0  0  0  0  0  0  0  0  0
  -26.1816   11.3121  -16.4243 C   0  0  0  0  0  0  0  0  0  0  0  0
  -26.7716   12.0780  -15.2312 C   0  0  1  0  0  0  0  0  0  0  0  0
  -27.9466   12.9418  -15.6829 C   0  0  0  0  0  0  0  0  0  0  0  0
  -21.7080   10.5523  -15.3665 H   0  0  0  0  0  0  0  0  0  0  0  0
  -20.1589    6.5326  -15.3989 H   0  0  0  0  0  0  0  0  0  0  0  0
  -22.2153    5.7556  -16.5427 H   0  0  0  0  0  0  0  0  0  0  0  0
  -24.3389    6.2487  -17.5456 H   0  0  0  0  0  0  0  0  0  0  0  0
  -25.0140    7.8465  -17.5682 H   0  0  0  0  0  0  0  0  0  0  0  0
  -24.7998    8.7654  -14.6401 H   0  0  0  0  0  0  0  0  0  0  0  0
  -26.4518    8.7076  -15.2861 H   0  0  0  0  0  0  0  0  0  0  0  0
  -25.2820   10.7701  -13.3474 H   0  0  0  0  0  0  0  0  0  0  0  0
  -26.9278    9.7606  -11.7831 H   0  0  0  0  0  0  0  0  0  0  0  0
  -25.7546    8.5601  -12.3693 H   0  0  0  0  0  0  0  0  0  0  0  0
  -27.4014    8.5886  -13.0348 H   0  0  0  0  0  0  0  0  0  0  0  0
  -27.5583   11.7104  -13.2595 H   0  0  0  0  0  0  0  0  0  0  0  0
  -28.1082   10.5544  -14.4906 H   0  0  0  0  0  0  0  0  0  0  0  0
  -27.0145   10.8832  -17.0020 H   0  0  0  0  0  0  0  0  0  0  0  0
  -25.6642   12.0431  -17.0596 H   0  0  0  0  0  0  0  0  0  0  0  0
  -25.9948   12.7357  -14.8180 H   0  0  0  0  0  0  0  0  0  0  0  0
  -28.3715   13.4875  -14.8339 H   0  0  0  0  0  0  0  0  0  0  0  0
  -28.7366   12.3199  -16.1196 H   0  0  0  0  0  0  0  0  0  0  0  0
  -27.6227   13.6660  -16.4362 H   0  0  0  0  0  0  0  0  0  0  0  0
  1  2  1  0  0  0  0
  2  3  2  0  0  0  0
  2  4  1  0  0  0  0
  3  8  1  0  0  0  0
  3 19  1  0  0  0  0
  4  5  2  0  0  0  0
  4 20  1  0  0  0  0
  5  6  1  0  0  0  0
  5 21  1  0  0  0  0
  6  7  1  0  0  0  0
  6  8  2  0  0  0  0
  7 22  1  0  0  0  0
  7 23  1  0  0  0  0
  8  9  1  0  0  0  0
  9 10  2  0  0  0  0
  9 11  1  0  0  0  0
 11 12  1  0  0  0  0
 11 16  1  0  0  0  0
 12 13  1  0  0  0  0
 12 24  1  0  0  0  0
 12 25  1  0  0  0  0
 13 14  1  0  0  0  0
 13 15  1  0  0  0  0
 13 26  1  1  0  0  0
 14 27  1  0  0  0  0
 14 28  1  0  0  0  0
 14 29  1  0  0  0  0
 15 17  1  0  0  0  0
 15 30  1  0  0  0  0
 15 31  1  0  0  0  0
 16 17  1  0  0  0  0
 16 32  1  0  0  0  0
 16 33  1  0  0  0  0
 17 18  1  0  0  0  0
 17 34  1  1  0  0  0
 18 35  1  0  0  0  0
 18 36  1  0  0  0  0
 18 37  1  0  0  0  0
M  END
$$$$
