SX6
 OpenBabel04091911143D

 60 62  0  0  1  0  0  0  0  0999 V2000
    4.0591   36.2634   79.8504 O   0  0  0  0  0  0  0  0  0  0  0  0
    3.3999   35.2312   79.8589 C   0  0  0  0  0  0  0  0  0  0  0  0
    2.1299   35.1479   80.4228 N   0  0  0  0  0  0  0  0  0  0  0  0
    1.4689   36.3392   80.9770 C   0  0  0  0  0  0  0  0  0  0  0  0
    0.6032   35.9800   82.1972 C   0  0  0  0  0  0  0  0  0  0  0  0
   -0.3121   34.9140   81.9021 O   0  0  0  0  0  0  0  0  0  0  0  0
    0.3996   33.7395   81.4899 C   0  0  0  0  0  0  0  0  0  0  0  0
    1.2239   34.0108   80.2345 C   0  0  0  0  0  0  0  0  0  0  0  0
    3.9378   33.9128   79.2890 C   0  0  0  0  0  0  0  0  0  0  0  0
    5.4184   33.9402   78.9579 C   0  0  0  0  0  0  0  0  0  0  0  0
    5.7074   34.8636   77.8002 C   0  0  0  0  0  0  0  0  0  0  0  0
    5.0869   34.7915   76.7471 O   0  0  0  0  0  0  0  0  0  0  0  0
    6.8027   35.6736   78.0555 N   0  0  0  0  0  0  0  0  0  0  0  0
    7.3082   36.6012   77.1349 C   0  0  0  0  0  0  0  0  0  0  0  0
    6.4262   37.4244   76.4246 C   0  0  0  0  0  0  0  0  0  0  0  0
    6.9089   38.3960   75.5486 C   0  0  0  0  0  0  0  0  0  0  0  0
    8.2836   38.5271   75.3580 C   0  0  0  0  0  0  0  0  0  0  0  0
    8.9500   39.8119   74.1446 Br  0  0  0  0  0  0  0  0  0  0  0  0
    9.1766   37.7161   76.0533 C   0  0  0  0  0  0  0  0  0  0  0  0
    8.7006   36.7557   76.9541 C   0  0  0  0  0  0  0  0  0  0  0  0
    9.7241   35.9481   77.6494 C   0  0  0  0  0  0  0  0  0  0  0  0
   10.4711   36.5584   78.4232 O   0  0  0  0  0  0  0  0  0  0  0  0
    9.8510   34.5827   77.3985 N   0  0  0  0  0  0  0  0  0  0  0  0
   10.8408   33.7993   78.1531 C   0  0  0  0  0  0  0  0  0  0  0  0
   11.7734   33.0141   77.2225 C   0  0  1  0  0  0  0  0  0  0  0  0
   12.7536   32.1543   78.0197 C   0  0  0  0  0  0  0  0  0  0  0  0
   10.9439   32.1482   76.2680 C   0  0  0  0  0  0  0  0  0  0  0  0
    9.0823   33.8695   76.3755 C   0  0  0  0  0  0  0  0  0  0  0  0
    9.9706   33.0150   75.4619 C   0  0  2  0  0  0  0  0  0  0  0  0
    9.1063   32.1495   74.5481 C   0  0  0  0  0  0  0  0  0  0  0  0
    0.8276   36.7469   80.1873 H   0  0  0  0  0  0  0  0  0  0  0  0
    2.2070   37.1011   81.2485 H   0  0  0  0  0  0  0  0  0  0  0  0
    0.0114   36.8463   82.5093 H   0  0  0  0  0  0  0  0  0  0  0  0
    1.2305   35.6804   83.0446 H   0  0  0  0  0  0  0  0  0  0  0  0
   -0.3318   32.9491   81.2848 H   0  0  0  0  0  0  0  0  0  0  0  0
    1.0404   33.3991   82.3114 H   0  0  0  0  0  0  0  0  0  0  0  0
    1.7613   33.1006   79.9697 H   0  0  0  0  0  0  0  0  0  0  0  0
    0.5695   34.2663   79.3927 H   0  0  0  0  0  0  0  0  0  0  0  0
    3.3573   33.6467   78.3983 H   0  0  0  0  0  0  0  0  0  0  0  0
    3.8121   33.1366   80.0479 H   0  0  0  0  0  0  0  0  0  0  0  0
    5.7487   32.9321   78.6633 H   0  0  0  0  0  0  0  0  0  0  0  0
    6.0004   34.2191   79.8432 H   0  0  0  0  0  0  0  0  0  0  0  0
    7.3484   35.5009   78.8843 H   0  0  0  0  0  0  0  0  0  0  0  0
    5.3504   37.3518   76.5938 H   0  0  0  0  0  0  0  0  0  0  0  0
    6.2073   39.0428   75.0290 H   0  0  0  0  0  0  0  0  0  0  0  0
   10.2487   37.8171   75.8978 H   0  0  0  0  0  0  0  0  0  0  0  0
   10.2976   33.1115   78.8136 H   0  0  0  0  0  0  0  0  0  0  0  0
   11.4409   34.4512   78.7974 H   0  0  0  0  0  0  0  0  0  0  0  0
   12.3571   33.7290   76.6268 H   0  0  0  0  0  0  0  0  0  0  0  0
   13.4183   31.5978   77.3496 H   0  0  0  0  0  0  0  0  0  0  0  0
   12.2294   31.4298   78.6522 H   0  0  0  0  0  0  0  0  0  0  0  0
   13.3794   32.7781   78.6666 H   0  0  0  0  0  0  0  0  0  0  0  0
   10.3885   31.3918   76.8378 H   0  0  0  0  0  0  0  0  0  0  0  0
   11.6103   31.6107   75.5826 H   0  0  0  0  0  0  0  0  0  0  0  0
    8.5471   34.5812   75.7431 H   0  0  0  0  0  0  0  0  0  0  0  0
    8.3371   33.2510   76.8891 H   0  0  0  0  0  0  0  0  0  0  0  0
   10.5638   33.6904   74.8305 H   0  0  0  0  0  0  0  0  0  0  0  0
    9.7295   31.5320   73.8935 H   0  0  0  0  0  0  0  0  0  0  0  0
    8.4684   32.7753   73.9152 H   0  0  0  0  0  0  0  0  0  0  0  0
    8.4579   31.4831   75.1276 H   0  0  0  0  0  0  0  0  0  0  0  0
  1  2  2  0  0  0  0
  2  3  1  0  0  0  0
  2  9  1  0  0  0  0
  3  4  1  0  0  0  0
  3  8  1  0  0  0  0
  4  5  1  0  0  0  0
  4 31  1  0  0  0  0
  4 32  1  0  0  0  0
  5  6  1  0  0  0  0
  5 33  1  0  0  0  0
  5 34  1  0  0  0  0
  6  7  1  0  0  0  0
  7  8  1  0  0  0  0
  7 35  1  0  0  0  0
  7 36  1  0  0  0  0
  8 37  1  0  0  0  0
  8 38  1  0  0  0  0
  9 10  1  0  0  0  0
  9 39  1  0  0  0  0
  9 40  1  0  0  0  0
 10 11  1  0  0  0  0
 10 41  1  0  0  0  0
 10 42  1  0  0  0  0
 11 12  2  0  0  0  0
 11 13  1  0  0  0  0
 13 14  1  0  0  0  0
 13 43  1  0  0  0  0
 14 15  2  0  0  0  0
 14 20  1  0  0  0  0
 15 16  1  0  0  0  0
 15 44  1  0  0  0  0
 16 17  2  0  0  0  0
 16 45  1  0  0  0  0
 17 18  1  0  0  0  0
 17 19  1  0  0  0  0
 19 20  2  0  0  0  0
 19 46  1  0  0  0  0
 20 21  1  0  0  0  0
 21 22  2  0  0  0  0
 21 23  1  0  0  0  0
 23 24  1  0  0  0  0
 23 28  1  0  0  0  0
 24 25  1  0  0  0  0
 24 47  1  0  0  0  0
 24 48  1  0  0  0  0
 25 26  1  0  0  0  0
 25 27  1  0  0  0  0
 25 49  1  6  0  0  0
 26 50  1  0  0  0  0
 26 51  1  0  0  0  0
 26 52  1  0  0  0  0
 27 29  1  0  0  0  0
 27 53  1  0  0  0  0
 27 54  1  0  0  0  0
 28 29  1  0  0  0  0
 28 55  1  0  0  0  0
 28 56  1  0  0  0  0
 29 30  1  0  0  0  0
 29 57  1  6  0  0  0
 30 58  1  0  0  0  0
 30 59  1  0  0  0  0
 30 60  1  0  0  0  0
M  END
$$$$
