TBL
 OpenBabel04091911413D

 29 29  0  0  1  0  0  0  0  0999 V2000
   -1.0759   -6.7585   -3.9476 O   0  0  0  0  0  0  0  0  0  0  0  0
   -0.7999   -5.6596   -4.8486 S   0  0  0  0  0  0  0  0  0  0  0  0
    0.4355   -5.6555   -5.6277 O   0  0  0  0  0  0  0  0  0  0  0  0
   -0.7904   -4.2951   -3.9262 N   0  0  0  0  0  0  0  0  0  0  0  0
   -0.5505   -2.9693   -4.5231 C   0  0  2  0  0  0  0  0  0  0  0  0
    0.2606   -2.1493   -3.5236 C   0  0  0  0  0  0  0  0  0  0  0  0
   -1.8431   -2.2039   -4.8620 C   0  0  0  0  0  0  0  0  0  0  0  0
   -1.7877   -1.4982   -5.9230 O   0  0  0  0  0  0  0  0  0  0  0  0
   -2.8183   -2.3678   -4.0626 O   0  0  0  0  0  0  0  0  0  0  0  0
   -2.1342   -5.5876   -6.0016 C   0  0  0  0  0  0  0  0  0  0  0  0
   -3.3992   -5.9226   -5.5516 C   0  0  0  0  0  0  0  0  0  0  0  0
   -4.4454   -6.0181   -6.4739 C   0  0  0  0  0  0  0  0  0  0  0  0
   -4.2218   -5.8719   -7.8507 C   0  0  0  0  0  0  0  0  0  0  0  0
   -2.9446   -5.5620   -8.3004 C   0  0  0  0  0  0  0  0  0  0  0  0
   -1.8892   -5.4143   -7.3764 C   0  0  0  0  0  0  0  0  0  0  0  0
   -5.3394   -5.9111   -8.6419 O   0  0  0  0  0  0  0  0  0  0  0  0
   -5.2970   -6.6920   -9.8368 C   0  0  0  0  0  0  0  0  0  0  0  0
   -1.1315   -4.3411   -2.9734 H   0  0  0  0  0  0  0  0  0  0  0  0
    0.0578   -3.0910   -5.4250 H   0  0  0  0  0  0  0  0  0  0  0  0
    0.5181   -1.1685   -3.9351 H   0  0  0  0  0  0  0  0  0  0  0  0
    1.1963   -2.6621   -3.2662 H   0  0  0  0  0  0  0  0  0  0  0  0
   -0.2948   -1.9929   -2.5922 H   0  0  0  0  0  0  0  0  0  0  0  0
   -3.5677   -6.1035   -4.4928 H   0  0  0  0  0  0  0  0  0  0  0  0
   -5.4467   -6.1993   -6.0994 H   0  0  0  0  0  0  0  0  0  0  0  0
   -2.7474   -5.3787   -9.3532 H   0  0  0  0  0  0  0  0  0  0  0  0
   -0.8877   -5.1675   -7.7242 H   0  0  0  0  0  0  0  0  0  0  0  0
   -6.2783   -6.5892  -10.3229 H   0  0  0  0  0  0  0  0  0  0  0  0
   -5.1649   -7.7561   -9.6136 H   0  0  0  0  0  0  0  0  0  0  0  0
   -4.5450   -6.3526  -10.5537 H   0  0  0  0  0  0  0  0  0  0  0  0
  1  2  2  0  0  0  0
  2  3  2  0  0  0  0
  2  4  1  0  0  0  0
  2 10  1  0  0  0  0
  4  5  1  0  0  0  0
  4 18  1  0  0  0  0
  5  6  1  0  0  0  0
  5  7  1  0  0  0  0
  5 19  1  6  0  0  0
  6 20  1  0  0  0  0
  6 21  1  0  0  0  0
  6 22  1  0  0  0  0
  7  8  2  0  0  0  0
  7  9  1  0  0  0  0
 10 11  2  0  0  0  0
 10 15  1  0  0  0  0
 11 12  1  0  0  0  0
 11 23  1  0  0  0  0
 12 13  2  0  0  0  0
 12 24  1  0  0  0  0
 13 14  1  0  0  0  0
 13 16  1  0  0  0  0
 14 15  2  0  0  0  0
 14 25  1  0  0  0  0
 15 26  1  0  0  0  0
 16 17  1  0  0  0  0
 17 27  1  0  0  0  0
 17 28  1  0  0  0  0
 17 29  1  0  0  0  0
M  END
$$$$
