TCH
 OpenBabel04091914533D

 79 82  0  0  1  0  0  0  0  0999 V2000
  -10.8584  -16.9136  -11.7169 C   0  0  0  0  0  0  0  0  0  0  0  0
  -12.3557  -17.1498  -12.0211 C   0  0  0  0  0  0  0  0  0  0  0  0
  -13.2946  -16.4792  -11.0005 C   0  0  2  0  0  0  0  0  0  0  0  0
  -13.6389  -15.1727  -11.4410 O   0  0  0  0  0  0  0  0  0  0  0  0
  -12.7219  -16.6823   -9.5755 C   0  0  0  0  0  0  0  0  0  0  0  0
  -11.7977  -17.8514   -9.7149 C   0  0  2  0  0  0  0  0  0  0  0  0
  -11.5286  -18.9865   -8.8612 C   0  0  0  0  0  0  0  0  0  0  0  0
  -11.3290  -20.1511   -9.8226 C   0  0  1  0  0  0  0  0  0  0  0  0
  -11.5186  -19.7918  -11.1943 O   0  0  0  0  0  0  0  0  0  0  0  0
   -9.8749  -20.0895   -9.7432 C   0  0  2  0  0  0  0  0  0  0  0  0
   -9.4801  -18.6643  -10.3456 C   0  0  1  0  0  0  0  0  0  0  0  0
  -10.4730  -17.4316  -10.3128 C   0  0  1  0  0  0  0  0  0  0  0  0
   -8.0198  -18.4365  -10.2191 C   0  0  0  0  0  0  0  0  0  0  0  0
   -7.1944  -19.7366  -10.2601 C   0  0  2  0  0  0  0  0  0  0  0  0
   -5.9391  -19.4535  -10.8621 O   0  0  0  0  0  0  0  0  0  0  0  0
   -7.8866  -21.0922  -10.5996 C   0  0  1  0  0  0  0  0  0  0  0  0
   -9.3575  -21.0382  -10.7369 C   0  0  1  0  0  0  0  0  0  0  0  0
   -9.8739  -22.4562  -10.8786 C   0  0  0  0  0  0  0  0  0  0  0  0
   -8.7570  -22.9789  -11.7757 C   0  0  0  0  0  0  0  0  0  0  0  0
   -7.6739  -21.8465  -11.8707 C   0  0  2  0  0  0  0  0  0  0  0  0
   -7.6687  -22.0365   -9.4046 C   0  0  0  0  0  0  0  0  0  0  0  0
   -9.9867  -16.2576   -9.4807 C   0  0  0  0  0  0  0  0  0  0  0  0
   -6.2826  -22.3559  -12.1321 C   0  0  1  0  0  0  0  0  0  0  0  0
   -5.7743  -23.1354  -10.9583 C   0  0  0  0  0  0  0  0  0  0  0  0
   -6.1340  -23.2023  -13.3815 C   0  0  0  0  0  0  0  0  0  0  0  0
   -7.2903  -23.1145  -14.3582 C   0  0  0  0  0  0  0  0  0  0  0  0
   -7.8434  -24.4625  -14.5526 C   0  0  0  0  0  0  0  0  0  0  0  0
   -7.6162  -25.0992  -15.7587 N   0  0  0  0  0  0  0  0  0  0  0  0
   -8.3616  -25.0902  -13.6368 O   0  0  0  0  0  0  0  0  0  0  0  0
   -7.7403  -26.5620  -15.9069 C   0  0  0  0  0  0  0  0  0  0  0  0
   -6.6938  -27.0960  -16.8558 C   0  0  0  0  0  0  0  0  0  0  0  0
   -6.7144  -28.8649  -17.1915 S   0  0  0  0  0  0  0  0  0  0  0  0
   -7.4419  -29.4867  -16.0731 O   0  0  0  0  0  0  0  0  0  0  0  0
   -5.2927  -29.2085  -17.2834 O   0  0  0  0  0  0  0  0  0  0  0  0
   -7.4072  -29.0242  -18.4902 O   0  0  0  0  0  0  0  0  0  0  0  0
  -10.6759  -15.8455  -11.7623 H   0  0  0  0  0  0  0  0  0  0  0  0
  -10.2684  -17.4246  -12.4704 H   0  0  0  0  0  0  0  0  0  0  0  0
  -12.5755  -18.2281  -12.0618 H   0  0  0  0  0  0  0  0  0  0  0  0
  -12.5904  -16.8688  -13.1600 H   0  0  0  0  0  0  0  0  0  0  0  0
  -14.2265  -17.0445  -10.9881 H   0  0  0  0  0  0  0  0  0  0  0  0
  -14.1124  -15.2717  -12.3082 H   0  0  0  0  0  0  0  0  0  0  0  0
  -13.4768  -16.8830   -8.8529 H   0  0  0  0  0  0  0  0  0  0  0  0
  -12.2076  -15.8015   -9.2366 H   0  0  0  0  0  0  0  0  0  0  0  0
  -12.3542  -18.3904  -10.4821 H   0  0  0  0  0  0  0  0  0  0  0  0
  -12.4779  -19.2513   -8.1008 H   0  0  0  0  0  0  0  0  0  0  0  0
  -10.5899  -18.7869   -8.2983 H   0  0  0  0  0  0  0  0  0  0  0  0
  -11.8471  -21.0818   -9.5992 H   0  0  0  0  0  0  0  0  0  0  0  0
  -11.3717  -20.5291  -11.8582 H   0  0  0  0  0  0  0  0  0  0  0  0
   -9.4965  -20.2540   -8.7274 H   0  0  0  0  0  0  0  0  0  0  0  0
   -9.5667  -18.8749  -11.3943 H   0  0  0  0  0  0  0  0  0  0  0  0
   -7.8195  -17.9456   -9.2374 H   0  0  0  0  0  0  0  0  0  0  0  0
   -7.7167  -17.7578  -11.0016 H   0  0  0  0  0  0  0  0  0  0  0  0
   -6.9332  -19.8645   -9.2167 H   0  0  0  0  0  0  0  0  0  0  0  0
   -5.4068  -20.2628  -10.8919 H   0  0  0  0  0  0  0  0  0  0  0  0
   -9.5885  -20.6185  -11.7164 H   0  0  0  0  0  0  0  0  0  0  0  0
  -10.8526  -22.5197  -11.3503 H   0  0  0  0  0  0  0  0  0  0  0  0
   -9.9313  -22.9822   -9.9178 H   0  0  0  0  0  0  0  0  0  0  0  0
   -9.1686  -23.1979  -12.7466 H   0  0  0  0  0  0  0  0  0  0  0  0
   -8.3136  -23.8813  -11.3610 H   0  0  0  0  0  0  0  0  0  0  0  0
   -7.9320  -21.1713  -12.7003 H   0  0  0  0  0  0  0  0  0  0  0  0
   -7.7784  -21.6070   -8.4240 H   0  0  0  0  0  0  0  0  0  0  0  0
   -6.6890  -22.4351   -9.2828 H   0  0  0  0  0  0  0  0  0  0  0  0
   -8.2012  -22.9677   -9.4686 H   0  0  0  0  0  0  0  0  0  0  0  0
  -10.6677  -15.4067   -9.5771 H   0  0  0  0  0  0  0  0  0  0  0  0
   -9.0489  -15.8841   -9.8425 H   0  0  0  0  0  0  0  0  0  0  0  0
   -9.9272  -16.5411   -8.4315 H   0  0  0  0  0  0  0  0  0  0  0  0
   -5.6428  -21.4949  -12.2491 H   0  0  0  0  0  0  0  0  0  0  0  0
   -4.7796  -23.5518  -11.0978 H   0  0  0  0  0  0  0  0  0  0  0  0
   -6.4689  -23.9477  -10.6688 H   0  0  0  0  0  0  0  0  0  0  0  0
   -5.4768  -22.3916  -10.2099 H   0  0  0  0  0  0  0  0  0  0  0  0
   -5.9821  -24.2451  -13.0811 H   0  0  0  0  0  0  0  0  0  0  0  0
   -5.2354  -22.8533  -13.8972 H   0  0  0  0  0  0  0  0  0  0  0  0
   -6.9935  -22.6708  -15.2879 H   0  0  0  0  0  0  0  0  0  0  0  0
   -8.0936  -22.5087  -13.9805 H   0  0  0  0  0  0  0  0  0  0  0  0
   -7.4208  -24.5192  -16.5649 H   0  0  0  0  0  0  0  0  0  0  0  0
   -8.7390  -26.7789  -16.2821 H   0  0  0  0  0  0  0  0  0  0  0  0
   -7.6116  -27.0114  -14.9174 H   0  0  0  0  0  0  0  0  0  0  0  0
   -5.7013  -26.8861  -16.4425 H   0  0  0  0  0  0  0  0  0  0  0  0
   -6.7976  -26.6080  -17.8246 H   0  0  0  0  0  0  0  0  0  0  0  0
  1  2  1  0  0  0  0
  1 12  1  0  0  0  0
  1 36  1  0  0  0  0
  1 37  1  0  0  0  0
  2  3  1  0  0  0  0
  2 38  1  0  0  0  0
  2 39  1  0  0  0  0
  3  4  1  0  0  0  0
  3  5  1  0  0  0  0
  3 40  1  6  0  0  0
  4 41  1  0  0  0  0
  5  6  1  0  0  0  0
  5 42  1  0  0  0  0
  5 43  1  0  0  0  0
  6  7  1  0  0  0  0
  6 12  1  0  0  0  0
  6 44  1  6  0  0  0
  7  8  1  0  0  0  0
  7 45  1  0  0  0  0
  7 46  1  0  0  0  0
  8  9  1  0  0  0  0
  8 10  1  0  0  0  0
  8 47  1  1  0  0  0
  9 48  1  0  0  0  0
 10 11  1  0  0  0  0
 10 17  1  0  0  0  0
 10 49  1  1  0  0  0
 11 12  1  0  0  0  0
 11 13  1  0  0  0  0
 11 50  1  6  0  0  0
 12 22  1  1  0  0  0
 13 14  1  0  0  0  0
 13 51  1  0  0  0  0
 13 52  1  0  0  0  0
 14 15  1  0  0  0  0
 14 16  1  0  0  0  0
 14 53  1  1  0  0  0
 15 54  1  0  0  0  0
 16 17  1  0  0  0  0
 16 20  1  0  0  0  0
 16 21  1  1  0  0  0
 17 18  1  0  0  0  0
 17 55  1  6  0  0  0
 18 19  1  0  0  0  0
 18 56  1  0  0  0  0
 18 57  1  0  0  0  0
 19 20  1  0  0  0  0
 19 58  1  0  0  0  0
 19 59  1  0  0  0  0
 20 23  1  0  0  0  0
 20 60  1  6  0  0  0
 21 61  1  0  0  0  0
 21 62  1  0  0  0  0
 21 63  1  0  0  0  0
 22 64  1  0  0  0  0
 22 65  1  0  0  0  0
 22 66  1  0  0  0  0
 23 24  1  0  0  0  0
 23 25  1  0  0  0  0
 23 67  1  6  0  0  0
 24 68  1  0  0  0  0
 24 69  1  0  0  0  0
 24 70  1  0  0  0  0
 25 26  1  0  0  0  0
 25 71  1  0  0  0  0
 25 72  1  0  0  0  0
 26 27  1  0  0  0  0
 26 73  1  0  0  0  0
 26 74  1  0  0  0  0
 27 28  1  0  0  0  0
 27 29  2  0  0  0  0
 28 30  1  0  0  0  0
 28 75  1  0  0  0  0
 30 31  1  0  0  0  0
 30 76  1  0  0  0  0
 30 77  1  0  0  0  0
 31 32  1  0  0  0  0
 31 78  1  0  0  0  0
 31 79  1  0  0  0  0
 32 33  2  0  0  0  0
 32 34  2  0  0  0  0
 32 35  1  0  0  0  0
M  END
$$$$
