TD3
 OpenBabel04091914023D

 27 26  0  0  0  0  0  0  0  0999 V2000
   -9.5508   -8.9931  -42.1479 O   0  0  0  0  0  0  0  0  0  0  0  0
  -10.2440   -7.7752  -42.3526 N   0  0  0  0  0  0  0  0  0  0  0  0
   -9.3955   -6.5817  -42.2966 C   0  0  0  0  0  0  0  0  0  0  0  0
   -8.4412   -6.4762  -43.4823 C   0  0  0  0  0  0  0  0  0  0  0  0
   -8.1882   -5.0333  -43.9680 C   0  0  0  0  0  0  0  0  0  0  0  0
   -7.6471   -5.0068  -45.4044 C   0  0  0  0  0  0  0  0  0  0  0  0
   -6.3381   -4.4295  -45.4875 O   0  0  0  0  0  0  0  0  0  0  0  0
  -11.5943   -7.8331  -42.6806 C   0  0  0  0  0  0  0  0  0  0  0  0
  -12.1754   -8.9175  -42.6800 O   0  0  0  0  0  0  0  0  0  0  0  0
  -12.2808   -6.4812  -42.9993 C   0  0  0  0  0  0  0  0  0  0  0  0
  -11.9057   -6.1485  -44.3202 O   0  0  0  0  0  0  0  0  0  0  0  0
  -12.2710   -4.6532  -44.8929 P   0  0  0  0  0  0  0  0  0  0  0  0
  -13.5664   -4.8529  -45.6438 O   0  0  0  0  0  0  0  0  0  0  0  0
  -11.0572   -4.3457  -45.7702 O   0  0  0  0  0  0  0  0  0  0  0  0
  -12.3723   -3.7882  -43.6554 O   0  0  0  0  0  0  0  0  0  0  0  0
  -10.2564   -9.6594  -42.3071 H   0  0  0  0  0  0  0  0  0  0  0  0
   -8.8497   -6.6188  -41.3465 H   0  0  0  0  0  0  0  0  0  0  0  0
  -10.0294   -5.7046  -42.2528 H   0  0  0  0  0  0  0  0  0  0  0  0
   -8.8289   -7.0763  -44.3126 H   0  0  0  0  0  0  0  0  0  0  0  0
   -7.4798   -6.9120  -43.1867 H   0  0  0  0  0  0  0  0  0  0  0  0
   -7.5173   -4.5119  -43.2756 H   0  0  0  0  0  0  0  0  0  0  0  0
   -9.1396   -4.4873  -43.9612 H   0  0  0  0  0  0  0  0  0  0  0  0
   -8.3096   -4.4202  -46.0478 H   0  0  0  0  0  0  0  0  0  0  0  0
   -7.5568   -6.0142  -45.8192 H   0  0  0  0  0  0  0  0  0  0  0  0
   -6.1573   -4.3833  -46.4480 H   0  0  0  0  0  0  0  0  0  0  0  0
  -11.9649   -5.7247  -42.2816 H   0  0  0  0  0  0  0  0  0  0  0  0
  -13.3582   -6.5786  -42.8959 H   0  0  0  0  0  0  0  0  0  0  0  0
  1  2  1  0  0  0  0
  1 16  1  0  0  0  0
  2  3  1  0  0  0  0
  2  8  1  0  0  0  0
  3  4  1  0  0  0  0
  3 17  1  0  0  0  0
  3 18  1  0  0  0  0
  4  5  1  0  0  0  0
  4 19  1  0  0  0  0
  4 20  1  0  0  0  0
  5  6  1  0  0  0  0
  5 21  1  0  0  0  0
  5 22  1  0  0  0  0
  6  7  1  0  0  0  0
  6 23  1  0  0  0  0
  6 24  1  0  0  0  0
  7 25  1  0  0  0  0
  8  9  2  0  0  0  0
  8 10  1  0  0  0  0
 10 11  1  0  0  0  0
 10 26  1  0  0  0  0
 10 27  1  0  0  0  0
 11 12  1  0  0  0  0
 12 13  2  0  0  0  0
 12 14  1  0  0  0  0
 12 15  1  0  0  0  0
M  END
$$$$
