TD4
 OpenBabel04091914023D

 30 29  0  0  0  0  0  0  0  0999 V2000
   -7.6673   24.0615  -21.9994 O   0  0  0  0  0  0  0  0  0  0  0  0
   -7.1087   24.6961  -23.1523 N   0  0  0  0  0  0  0  0  0  0  0  0
   -8.0040   24.7568  -24.3048 C   0  0  0  0  0  0  0  0  0  0  0  0
   -9.0566   25.8467  -24.1679 C   0  0  0  0  0  0  0  0  0  0  0  0
  -10.4907   25.3086  -24.1899 C   0  0  0  0  0  0  0  0  0  0  0  0
  -11.5503   26.4035  -24.4101 C   0  0  0  0  0  0  0  0  0  0  0  0
  -12.3875   26.1265  -25.5447 O   0  0  0  0  0  0  0  0  0  0  0  0
  -14.0180   26.3963  -25.3960 P   0  0  0  0  0  0  0  0  0  0  0  0
  -14.6519   25.4757  -26.4162 O   0  0  0  0  0  0  0  0  0  0  0  0
  -14.3880   26.0936  -23.9591 O   0  0  0  0  0  0  0  0  0  0  0  0
  -14.1995   27.8778  -25.7389 O   0  0  0  0  0  0  0  0  0  0  0  0
   -6.0809   25.6110  -22.9866 C   0  0  0  0  0  0  0  0  0  0  0  0
   -5.4731   25.6694  -21.9028 O   0  0  0  0  0  0  0  0  0  0  0  0
   -5.6399   26.4664  -24.2166 C   0  0  0  0  0  0  0  0  0  0  0  0
   -4.7579   27.5621  -23.9570 O   0  0  0  0  0  0  0  0  0  0  0  0
   -4.5493   28.7872  -25.0440 P   0  0  0  0  0  0  0  0  0  0  0  0
   -3.2670   29.4575  -24.5967 O   0  0  0  0  0  0  0  0  0  0  0  0
   -5.7793   29.6522  -24.9884 O   0  0  0  0  0  0  0  0  0  0  0  0
   -4.3768   28.0874  -26.3930 O   0  0  0  0  0  0  0  0  0  0  0  0
   -7.8623   23.1460  -22.2665 H   0  0  0  0  0  0  0  0  0  0  0  0
   -8.4474   23.7713  -24.4567 H   0  0  0  0  0  0  0  0  0  0  0  0
   -7.3639   24.9781  -25.1634 H   0  0  0  0  0  0  0  0  0  0  0  0
   -8.9315   26.5328  -25.0105 H   0  0  0  0  0  0  0  0  0  0  0  0
   -8.8953   26.3893  -23.2316 H   0  0  0  0  0  0  0  0  0  0  0  0
  -10.6784   24.8484  -23.2113 H   0  0  0  0  0  0  0  0  0  0  0  0
  -10.5756   24.5494  -24.9705 H   0  0  0  0  0  0  0  0  0  0  0  0
  -11.0543   27.3691  -24.5418 H   0  0  0  0  0  0  0  0  0  0  0  0
  -12.1798   26.4326  -23.5253 H   0  0  0  0  0  0  0  0  0  0  0  0
   -6.5389   26.8555  -24.6987 H   0  0  0  0  0  0  0  0  0  0  0  0
   -5.1369   25.7470  -24.8802 H   0  0  0  0  0  0  0  0  0  0  0  0
  1  2  1  0  0  0  0
  1 20  1  0  0  0  0
  2  3  1  0  0  0  0
  2 12  1  0  0  0  0
  3  4  1  0  0  0  0
  3 21  1  0  0  0  0
  3 22  1  0  0  0  0
  4  5  1  0  0  0  0
  4 23  1  0  0  0  0
  4 24  1  0  0  0  0
  5  6  1  0  0  0  0
  5 25  1  0  0  0  0
  5 26  1  0  0  0  0
  6  7  1  0  0  0  0
  6 27  1  0  0  0  0
  6 28  1  0  0  0  0
  7  8  1  0  0  0  0
  8  9  2  0  0  0  0
  8 10  1  0  0  0  0
  8 11  1  0  0  0  0
 12 13  2  0  0  0  0
 12 14  1  0  0  0  0
 14 15  1  0  0  0  0
 14 29  1  0  0  0  0
 14 30  1  0  0  0  0
 15 16  1  0  0  0  0
 16 17  2  0  0  0  0
 16 18  1  0  0  0  0
 16 19  1  0  0  0  0
M  END
$$$$
