TDG
 OpenBabel04091914213D

 45 46  0  0  1  0  0  0  0  0999 V2000
   23.3579    0.3829   17.9006 C   0  0  1  0  0  0  0  0  0  0  0  0
   24.2967   -0.9394   17.0754 S   0  0  0  0  0  0  0  0  0  0  0  0
   23.7679    1.7490   17.3219 C   0  0  2  0  0  0  0  0  0  0  0  0
   25.1282    2.0586   17.6591 O   0  0  0  0  0  0  0  0  0  0  0  0
   22.8620    2.8365   17.9139 C   0  0  1  0  0  0  0  0  0  0  0  0
   23.1795    4.1021   17.3217 O   0  0  0  0  0  0  0  0  0  0  0  0
   21.3797    2.4846   17.7281 C   0  0  1  0  0  0  0  0  0  0  0  0
   21.0956    2.4516   16.3183 O   0  0  0  0  0  0  0  0  0  0  0  0
   21.1429    1.1281   18.4002 C   0  0  2  0  0  0  0  0  0  0  0  0
   21.9480    0.1231   17.7623 O   0  0  0  0  0  0  0  0  0  0  0  0
   19.6763    0.6952   18.3221 C   0  0  0  0  0  0  0  0  0  0  0  0
   19.4826   -0.5116   19.0586 O   0  0  0  0  0  0  0  0  0  0  0  0
   23.5898   -2.3252   18.0005 C   0  0  1  0  0  0  0  0  0  0  0  0
   23.2406   -3.4873   17.0438 C   0  0  2  0  0  0  0  0  0  0  0  0
   22.2291   -3.1141   16.0841 O   0  0  0  0  0  0  0  0  0  0  0  0
   22.7027   -4.6668   17.8739 C   0  0  1  0  0  0  0  0  0  0  0  0
   22.5152   -5.8434   17.0779 O   0  0  0  0  0  0  0  0  0  0  0  0
   23.6221   -5.0005   19.0471 C   0  0  1  0  0  0  0  0  0  0  0  0
   24.8453   -5.5407   18.5447 O   0  0  0  0  0  0  0  0  0  0  0  0
   23.8812   -3.7330   19.8785 C   0  0  2  0  0  0  0  0  0  0  0  0
   24.4578   -2.6972   19.0730 O   0  0  0  0  0  0  0  0  0  0  0  0
   24.7347   -4.0177   21.1269 C   0  0  0  0  0  0  0  0  0  0  0  0
   26.0755   -3.5546   21.0436 O   0  0  0  0  0  0  0  0  0  0  0  0
   23.6274    0.3398   18.9637 H   0  0  0  0  0  0  0  0  0  0  0  0
   23.6851    1.7547   16.2276 H   0  0  0  0  0  0  0  0  0  0  0  0
   25.3077    2.9439   17.2912 H   0  0  0  0  0  0  0  0  0  0  0  0
   23.0772    2.9406   18.9837 H   0  0  0  0  0  0  0  0  0  0  0  0
   22.8998    4.0376   16.3766 H   0  0  0  0  0  0  0  0  0  0  0  0
   20.7486    3.2611   18.1670 H   0  0  0  0  0  0  0  0  0  0  0  0
   20.1692    2.2005   16.1821 H   0  0  0  0  0  0  0  0  0  0  0  0
   21.4286    1.1658   19.4571 H   0  0  0  0  0  0  0  0  0  0  0  0
   19.3594    0.5037   17.2926 H   0  0  0  0  0  0  0  0  0  0  0  0
   19.0298    1.4612   18.7599 H   0  0  0  0  0  0  0  0  0  0  0  0
   20.0610   -1.1747   18.6439 H   0  0  0  0  0  0  0  0  0  0  0  0
   22.6551   -1.9862   18.4555 H   0  0  0  0  0  0  0  0  0  0  0  0
   24.1215   -3.8073   16.4740 H   0  0  0  0  0  0  0  0  0  0  0  0
   21.4432   -2.7890   16.5540 H   0  0  0  0  0  0  0  0  0  0  0  0
   21.7087   -4.3991   18.2540 H   0  0  0  0  0  0  0  0  0  0  0  0
   23.3264   -5.9742   16.5549 H   0  0  0  0  0  0  0  0  0  0  0  0
   23.1521   -5.7700   19.6700 H   0  0  0  0  0  0  0  0  0  0  0  0
   24.6406   -6.3989   18.1373 H   0  0  0  0  0  0  0  0  0  0  0  0
   22.9116   -3.3673   20.2395 H   0  0  0  0  0  0  0  0  0  0  0  0
   24.7449   -5.0834   21.3671 H   0  0  0  0  0  0  0  0  0  0  0  0
   24.2826   -3.5081   21.9848 H   0  0  0  0  0  0  0  0  0  0  0  0
   26.0350   -2.6343   20.7231 H   0  0  0  0  0  0  0  0  0  0  0  0
  1  2  1  0  0  0  0
  1  3  1  0  0  0  0
  1 10  1  0  0  0  0
  1 24  1  1  0  0  0
  2 13  1  0  0  0  0
  3  4  1  0  0  0  0
  3  5  1  0  0  0  0
  3 25  1  6  0  0  0
  4 26  1  0  0  0  0
  5  6  1  0  0  0  0
  5  7  1  0  0  0  0
  5 27  1  1  0  0  0
  6 28  1  0  0  0  0
  7  8  1  0  0  0  0
  7  9  1  0  0  0  0
  7 29  1  1  0  0  0
  8 30  1  0  0  0  0
  9 10  1  0  0  0  0
  9 11  1  0  0  0  0
  9 31  1  1  0  0  0
 11 12  1  0  0  0  0
 11 32  1  0  0  0  0
 11 33  1  0  0  0  0
 12 34  1  0  0  0  0
 13 14  1  0  0  0  0
 13 21  1  0  0  0  0
 13 35  1  1  0  0  0
 14 15  1  0  0  0  0
 14 16  1  0  0  0  0
 14 36  1  6  0  0  0
 15 37  1  0  0  0  0
 16 17  1  0  0  0  0
 16 18  1  0  0  0  0
 16 38  1  1  0  0  0
 17 39  1  0  0  0  0
 18 19  1  0  0  0  0
 18 20  1  0  0  0  0
 18 40  1  1  0  0  0
 19 41  1  0  0  0  0
 20 21  1  0  0  0  0
 20 22  1  0  0  0  0
 20 42  1  1  0  0  0
 22 23  1  0  0  0  0
 22 43  1  0  0  0  0
 22 44  1  0  0  0  0
 23 45  1  0  0  0  0
M  END
$$$$
