TDP
 OpenBabel04091913403D

 42 43  0  0  0  0  0  0  0  0999 V2000
   24.3734  -59.6229    1.5942 N   0  0  0  0  0  0  0  0  0  0  0  0
   24.1337  -58.7756    0.5774 C   0  0  0  0  0  0  0  0  0  0  0  0
   24.2379  -57.3042    0.8668 C   0  0  0  0  0  0  0  0  0  0  0  0
   23.8302  -59.1738   -0.6632 N   0  0  0  0  0  0  0  0  0  0  0  0
   23.7172  -60.5001   -0.8895 C   0  0  0  0  0  0  0  0  0  0  0  0
   23.4666  -60.8494   -2.2005 N   0  0  0  0  0  0  0  0  0  0  0  0
   23.9137  -61.4525    0.1010 C   0  0  0  0  0  0  0  0  0  0  0  0
   24.2547  -60.9349    1.3389 C   0  0  0  0  0  0  0  0  0  0  0  0
   23.8535  -62.9373   -0.0853 C   0  0  0  0  0  0  0  0  0  0  0  0
   22.4825  -63.4687   -0.0547 N   0  3  0  0  0  0  0  0  0  0  0  0
   21.7876  -63.6137   -1.1686 C   0  0  0  0  0  0  0  0  0  0  0  0
   20.2794  -64.3195   -0.8945 S   0  0  0  0  0  0  0  0  0  0  0  0
   20.5629  -64.4240    0.7939 C   0  0  0  0  0  0  0  0  0  0  0  0
   21.8252  -63.9387    1.0864 C   0  0  0  0  0  0  0  0  0  0  0  0
   22.4766  -63.8831    2.4159 C   0  0  0  0  0  0  0  0  0  0  0  0
   19.5256  -64.9778    1.7419 C   0  0  0  0  0  0  0  0  0  0  0  0
   18.1160  -65.0854    1.1538 C   0  0  0  0  0  0  0  0  0  0  0  0
   17.1877  -64.9150    2.2006 O   0  0  0  0  0  0  0  0  0  0  0  0
   15.9133  -63.9077    1.9903 P   0  0  1  0  0  0  0  0  0  0  0  0
   15.2412  -64.3841    0.6221 O   0  0  0  0  0  0  0  0  0  0  0  0
   15.0287  -64.0448    3.2103 O   0  0  0  0  0  0  0  0  0  0  0  0
   16.5407  -62.5201    1.7812 O   0  0  0  0  0  0  0  0  0  0  0  0
   14.6512  -65.7757    0.0557 P   0  0  0  0  0  0  0  0  0  0  0  0
   13.3222  -65.4148   -0.5744 O   0  0  0  0  0  0  0  0  0  0  0  0
   15.7007  -66.1984   -0.9841 O   0  0  0  0  0  0  0  0  0  0  0  0
   14.5665  -66.7536    1.2112 O   0  0  0  0  0  0  0  0  0  0  0  0
   24.4954  -57.1394    1.9198 H   0  0  0  0  0  0  0  0  0  0  0  0
   23.2899  -56.7954    0.6707 H   0  0  0  0  0  0  0  0  0  0  0  0
   25.0158  -56.8371    0.2567 H   0  0  0  0  0  0  0  0  0  0  0  0
   23.3413  -61.7526   -2.5668 H   0  0  0  0  0  0  0  0  0  0  0  0
   23.2878  -60.0693   -2.8326 H   0  0  0  0  0  0  0  0  0  0  0  0
   24.4575  -61.5800    2.1791 H   0  0  0  0  0  0  0  0  0  0  0  0
   24.4412  -63.4433    0.6875 H   0  0  0  0  0  0  0  0  0  0  0  0
   24.3423  -63.2268   -1.0253 H   0  0  0  0  0  0  0  0  0  0  0  0
   22.0952  -63.3511   -2.1700 H   0  0  0  0  0  0  0  0  0  0  0  0
   21.8257  -64.2720    3.2044 H   0  0  0  0  0  0  0  0  0  0  0  0
   22.7162  -62.8539    2.6848 H   0  0  0  0  0  0  0  0  0  0  0  0
   23.3939  -64.4795    2.4299 H   0  0  0  0  0  0  0  0  0  0  0  0
   19.4980  -64.3423    2.6369 H   0  0  0  0  0  0  0  0  0  0  0  0
   19.8638  -65.9664    2.0843 H   0  0  0  0  0  0  0  0  0  0  0  0
   18.0009  -66.0827    0.7138 H   0  0  0  0  0  0  0  0  0  0  0  0
   17.9596  -64.3351    0.3759 H   0  0  0  0  0  0  0  0  0  0  0  0
  1  2  2  0  0  0  0
  1  8  1  0  0  0  0
  2  3  1  0  0  0  0
  2  4  1  0  0  0  0
  3 27  1  0  0  0  0
  3 28  1  0  0  0  0
  3 29  1  0  0  0  0
  4  5  2  0  0  0  0
  5  6  1  0  0  0  0
  5  7  1  0  0  0  0
  6 30  1  0  0  0  0
  6 31  1  0  0  0  0
  7  8  2  0  0  0  0
  7  9  1  0  0  0  0
  8 32  1  0  0  0  0
  9 10  1  0  0  0  0
  9 33  1  0  0  0  0
  9 34  1  0  0  0  0
 10 11  2  0  0  0  0
 10 14  1  0  0  0  0
 11 12  1  0  0  0  0
 11 35  1  0  0  0  0
 12 13  1  0  0  0  0
 13 14  2  0  0  0  0
 13 16  1  0  0  0  0
 14 15  1  0  0  0  0
 15 36  1  0  0  0  0
 15 37  1  0  0  0  0
 15 38  1  0  0  0  0
 16 17  1  0  0  0  0
 16 39  1  0  0  0  0
 16 40  1  0  0  0  0
 17 18  1  0  0  0  0
 17 41  1  0  0  0  0
 17 42  1  0  0  0  0
 19 18  1  1  0  0  0
 19 20  1  0  0  0  0
 19 21  2  0  0  0  0
 19 22  1  0  0  0  0
 20 23  1  0  0  0  0
 23 24  2  0  0  0  0
 23 25  1  0  0  0  0
 23 26  1  0  0  0  0
M  CHG  1  10   1
M  END
$$$$
