TES
 OpenBabel04091913263D

 49 52  0  0  1  0  0  0  0  0999 V2000
   -2.3302   -0.7548   20.8617 C   0  0  0  0  0  0  0  0  0  0  0  0
   -3.5083   -1.5620   20.3373 C   0  0  0  0  0  0  0  0  0  0  0  0
   -4.0191   -1.0332   19.0252 C   0  0  0  0  0  0  0  0  0  0  0  0
   -5.1713   -1.2481   18.6488 O   0  0  0  0  0  0  0  0  0  0  0  0
   -3.1129   -0.2904   18.1515 C   0  0  0  0  0  0  0  0  0  0  0  0
   -1.8489    0.0367   18.4996 C   0  0  0  0  0  0  0  0  0  0  0  0
   -1.0195    0.8132   17.5174 C   0  0  0  0  0  0  0  0  0  0  0  0
   -0.0518    1.8171   18.1369 C   0  0  0  0  0  0  0  0  0  0  0  0
    0.6334    1.3013   19.4052 C   0  0  2  0  0  0  0  0  0  0  0  0
   -0.4401    0.8161   20.3996 C   0  0  1  0  0  0  0  0  0  0  0  0
   -1.2584   -0.3740   19.8232 C   0  0  1  0  0  0  0  0  0  0  0  0
    0.1171    0.5397   21.8071 C   0  0  0  0  0  0  0  0  0  0  0  0
    0.8761    1.7391   22.3777 C   0  0  0  0  0  0  0  0  0  0  0  0
    2.0021    2.1081   21.4245 C   0  0  1  0  0  0  0  0  0  0  0  0
    1.4166    2.4365   20.0499 C   0  0  1  0  0  0  0  0  0  0  0  0
    2.6202    2.9820   19.2904 C   0  0  0  0  0  0  0  0  0  0  0  0
    3.4788    3.6555   20.3794 C   0  0  0  0  0  0  0  0  0  0  0  0
    2.7227    3.4303   21.7065 C   0  0  2  0  0  0  0  0  0  0  0  0
    3.5915    3.3974   22.8122 O   0  0  0  0  0  0  0  0  0  0  0  0
    3.0223    0.9632   21.3645 C   0  0  0  0  0  0  0  0  0  0  0  0
   -0.3792   -1.6021   19.5840 C   0  0  0  0  0  0  0  0  0  0  0  0
   -1.8590   -1.3424   21.6625 H   0  0  0  0  0  0  0  0  0  0  0  0
   -2.7231    0.1632   21.3187 H   0  0  0  0  0  0  0  0  0  0  0  0
   -4.3160   -1.5076   21.0705 H   0  0  0  0  0  0  0  0  0  0  0  0
   -3.2132   -2.6079   20.2147 H   0  0  0  0  0  0  0  0  0  0  0  0
   -3.4632   -0.0300   17.1447 H   0  0  0  0  0  0  0  0  0  0  0  0
   -1.6811    1.3764   16.8442 H   0  0  0  0  0  0  0  0  0  0  0  0
   -0.4451    0.1123   16.9052 H   0  0  0  0  0  0  0  0  0  0  0  0
   -0.6009    2.7374   18.3721 H   0  0  0  0  0  0  0  0  0  0  0  0
    0.7146    2.0743   17.3947 H   0  0  0  0  0  0  0  0  0  0  0  0
    1.3105    0.4846   19.1355 H   0  0  0  0  0  0  0  0  0  0  0  0
   -1.1512    1.6424   20.5140 H   0  0  0  0  0  0  0  0  0  0  0  0
    0.7708   -0.3327   21.7808 H   0  0  0  0  0  0  0  0  0  0  0  0
   -0.6957    0.2850   22.4878 H   0  0  0  0  0  0  0  0  0  0  0  0
    1.2776    1.4941   23.3667 H   0  0  0  0  0  0  0  0  0  0  0  0
    0.1846    2.5828   22.4988 H   0  0  0  0  0  0  0  0  0  0  0  0
    0.7092    3.2691   20.1774 H   0  0  0  0  0  0  0  0  0  0  0  0
    2.3141    3.6910   18.5224 H   0  0  0  0  0  0  0  0  0  0  0  0
    3.1781    2.1683   18.7997 H   0  0  0  0  0  0  0  0  0  0  0  0
    3.5947    4.7196   20.1672 H   0  0  0  0  0  0  0  0  0  0  0  0
    4.4791    3.2080   20.4132 H   0  0  0  0  0  0  0  0  0  0  0  0
    1.9999    4.2421   21.8492 H   0  0  0  0  0  0  0  0  0  0  0  0
    3.0413    3.2543   23.6320 H   0  0  0  0  0  0  0  0  0  0  0  0
    2.5559    0.0068   21.1497 H   0  0  0  0  0  0  0  0  0  0  0  0
    3.5640    0.8813   22.3067 H   0  0  0  0  0  0  0  0  0  0  0  0
    3.7515    1.1133   20.5707 H   0  0  0  0  0  0  0  0  0  0  0  0
   -0.9735   -2.4323   19.1934 H   0  0  0  0  0  0  0  0  0  0  0  0
    0.0888   -1.9333   20.5141 H   0  0  0  0  0  0  0  0  0  0  0  0
    0.4093   -1.3870   18.8615 H   0  0  0  0  0  0  0  0  0  0  0  0
  1  2  1  0  0  0  0
  1 11  1  0  0  0  0
  1 22  1  0  0  0  0
  1 23  1  0  0  0  0
  2  3  1  0  0  0  0
  2 24  1  0  0  0  0
  2 25  1  0  0  0  0
  3  4  2  0  0  0  0
  3  5  1  0  0  0  0
  5  6  2  0  0  0  0
  5 26  1  0  0  0  0
  6  7  1  0  0  0  0
  6 11  1  0  0  0  0
  7  8  1  0  0  0  0
  7 27  1  0  0  0  0
  7 28  1  0  0  0  0
  8  9  1  0  0  0  0
  8 29  1  0  0  0  0
  8 30  1  0  0  0  0
  9 10  1  0  0  0  0
  9 15  1  0  0  0  0
  9 31  1  6  0  0  0
 10 11  1  0  0  0  0
 10 12  1  0  0  0  0
 10 32  1  1  0  0  0
 11 21  1  6  0  0  0
 12 13  1  0  0  0  0
 12 33  1  0  0  0  0
 12 34  1  0  0  0  0
 13 14  1  0  0  0  0
 13 35  1  0  0  0  0
 13 36  1  0  0  0  0
 14 15  1  0  0  0  0
 14 18  1  0  0  0  0
 14 20  1  6  0  0  0
 15 16  1  0  0  0  0
 15 37  1  1  0  0  0
 16 17  1  0  0  0  0
 16 38  1  0  0  0  0
 16 39  1  0  0  0  0
 17 18  1  0  0  0  0
 17 40  1  0  0  0  0
 17 41  1  0  0  0  0
 18 19  1  0  0  0  0
 18 42  1  1  0  0  0
 19 43  1  0  0  0  0
 20 44  1  0  0  0  0
 20 45  1  0  0  0  0
 20 46  1  0  0  0  0
 21 47  1  0  0  0  0
 21 48  1  0  0  0  0
 21 49  1  0  0  0  0
M  END
$$$$
