TH4
 OpenBabel04091911113D

 25 26  0  0  0  0  0  0  0  0999 V2000
  -12.5893   20.4231   59.5696 C   0  0  0  0  0  0  0  0  0  0  0  0
  -11.6335   20.4332   58.5531 C   0  0  0  0  0  0  0  0  0  0  0  0
  -10.4310   19.7937   58.7833 C   0  0  0  0  0  0  0  0  0  0  0  0
   -9.2182   19.7421   57.5713 Cl  0  0  0  0  0  0  0  0  0  0  0  0
  -10.1210   19.1598   59.9302 N   0  0  0  0  0  0  0  0  0  0  0  0
  -11.0629   19.1869   60.9062 C   0  0  0  0  0  0  0  0  0  0  0  0
  -12.3094   19.7962   60.7914 C   0  0  0  0  0  0  0  0  0  0  0  0
  -13.3535   19.7780   61.8859 C   0  0  0  0  0  0  0  0  0  0  0  0
  -12.8068   19.7128   63.2312 N   0  0  0  0  0  0  0  0  0  0  0  0
  -12.8471   18.4720   63.9923 C   0  0  0  0  0  0  0  0  0  0  0  0
  -12.6228   18.8357   65.4594 C   0  0  0  0  0  0  0  0  0  0  0  0
  -11.5874   20.3334   65.4126 S   0  0  0  0  0  0  0  0  0  0  0  0
  -12.1699   20.7837   63.8127 C   0  0  0  0  0  0  0  0  0  0  0  0
  -12.0478   21.9330   63.2400 N   0  0  0  0  0  0  0  0  0  0  0  0
  -11.4308   22.9435   63.8475 C   0  0  0  0  0  0  0  0  0  0  0  0
  -10.9219   23.8651   64.3381 N   0  0  0  0  0  0  0  0  0  0  0  0
  -13.5433   20.9201   59.4005 H   0  0  0  0  0  0  0  0  0  0  0  0
  -11.8287   20.9276   57.6098 H   0  0  0  0  0  0  0  0  0  0  0  0
  -10.7575   18.6882   61.8208 H   0  0  0  0  0  0  0  0  0  0  0  0
  -14.0412   18.9446   61.7063 H   0  0  0  0  0  0  0  0  0  0  0  0
  -13.9574   20.6933   61.8127 H   0  0  0  0  0  0  0  0  0  0  0  0
  -12.0556   17.7949   63.6508 H   0  0  0  0  0  0  0  0  0  0  0  0
  -13.8043   17.9523   63.8746 H   0  0  0  0  0  0  0  0  0  0  0  0
  -12.1454   18.0243   66.0166 H   0  0  0  0  0  0  0  0  0  0  0  0
  -13.5724   19.0814   65.9471 H   0  0  0  0  0  0  0  0  0  0  0  0
  1  2  2  0  0  0  0
  1  7  1  0  0  0  0
  1 17  1  0  0  0  0
  2  3  1  0  0  0  0
  2 18  1  0  0  0  0
  3  4  1  0  0  0  0
  3  5  2  0  0  0  0
  5  6  1  0  0  0  0
  6  7  2  0  0  0  0
  6 19  1  0  0  0  0
  7  8  1  0  0  0  0
  8  9  1  0  0  0  0
  8 20  1  0  0  0  0
  8 21  1  0  0  0  0
  9 10  1  0  0  0  0
  9 13  1  0  0  0  0
 10 11  1  0  0  0  0
 10 22  1  0  0  0  0
 10 23  1  0  0  0  0
 11 12  1  0  0  0  0
 11 24  1  0  0  0  0
 11 25  1  0  0  0  0
 12 13  1  0  0  0  0
 13 14  2  0  0  0  0
 14 15  1  0  0  0  0
 15 16  3  0  0  0  0
M  END
$$$$
