TH4
 OpenBabel04091916343D

 25 26  0  0  0  0  0  0  0  0999 V2000
   29.8127  -26.6515  -30.4870 C   0  0  0  0  0  0  0  0  0  0  0  0
   29.7915  -26.2621  -31.8454 C   0  0  0  0  0  0  0  0  0  0  0  0
   29.6827  -24.9089  -32.1379 C   0  0  0  0  0  0  0  0  0  0  0  0
   29.6276  -24.3524  -33.8150 Cl  0  0  0  0  0  0  0  0  0  0  0  0
   29.6050  -23.9431  -31.1617 N   0  0  0  0  0  0  0  0  0  0  0  0
   29.6275  -24.3475  -29.8459 C   0  0  0  0  0  0  0  0  0  0  0  0
   29.7329  -25.6847  -29.4608 C   0  0  0  0  0  0  0  0  0  0  0  0
   29.7012  -26.0577  -27.9887 C   0  0  0  0  0  0  0  0  0  0  0  0
   30.9515  -26.5636  -27.4582 N   0  0  0  0  0  0  0  0  0  0  0  0
   32.0882  -25.6869  -27.3029 C   0  0  0  0  0  0  0  0  0  0  0  0
   33.2483  -26.4664  -26.6970 C   0  0  0  0  0  0  0  0  0  0  0  0
   32.6806  -28.1462  -26.4182 S   0  0  0  0  0  0  0  0  0  0  0  0
   31.0861  -27.8535  -27.0346 C   0  0  0  0  0  0  0  0  0  0  0  0
   30.1240  -28.7035  -27.1156 N   0  0  0  0  0  0  0  0  0  0  0  0
   30.3323  -29.9526  -26.6975 C   0  0  0  0  0  0  0  0  0  0  0  0
   30.4737  -31.0301  -26.3640 N   0  0  0  0  0  0  0  0  0  0  0  0
   29.8938  -27.7139  -30.2240 H   0  0  0  0  0  0  0  0  0  0  0  0
   29.8585  -27.0095  -32.6353 H   0  0  0  0  0  0  0  0  0  0  0  0
   29.5620  -23.5508  -29.0793 H   0  0  0  0  0  0  0  0  0  0  0  0
   28.9131  -26.8055  -27.8525 H   0  0  0  0  0  0  0  0  0  0  0  0
   29.4381  -25.1653  -27.4119 H   0  0  0  0  0  0  0  0  0  0  0  0
   31.8307  -24.8428  -26.6493 H   0  0  0  0  0  0  0  0  0  0  0  0
   32.3809  -25.2964  -28.2851 H   0  0  0  0  0  0  0  0  0  0  0  0
   33.5556  -26.0416  -25.7382 H   0  0  0  0  0  0  0  0  0  0  0  0
   34.1033  -26.4983  -27.3762 H   0  0  0  0  0  0  0  0  0  0  0  0
  1  2  2  0  0  0  0
  1  7  1  0  0  0  0
  1 17  1  0  0  0  0
  2  3  1  0  0  0  0
  2 18  1  0  0  0  0
  3  4  1  0  0  0  0
  3  5  2  0  0  0  0
  5  6  1  0  0  0  0
  6  7  2  0  0  0  0
  6 19  1  0  0  0  0
  7  8  1  0  0  0  0
  8  9  1  0  0  0  0
  8 20  1  0  0  0  0
  8 21  1  0  0  0  0
  9 10  1  0  0  0  0
  9 13  1  0  0  0  0
 10 11  1  0  0  0  0
 10 22  1  0  0  0  0
 10 23  1  0  0  0  0
 11 12  1  0  0  0  0
 11 24  1  0  0  0  0
 11 25  1  0  0  0  0
 12 13  1  0  0  0  0
 13 14  2  0  0  0  0
 14 15  1  0  0  0  0
 15 16  3  0  0  0  0
M  END
$$$$
