TMY
 OpenBabel04091916063D

 59 59  0  0  0  0  0  0  0  0999 V2000
  -11.1096   24.1904    5.6672 C   0  0  0  0  0  0  0  0  0  0  0  0
  -11.0613   25.3131    4.8037 C   0  0  0  0  0  0  0  0  0  0  0  0
  -11.1608   26.6317    5.3436 C   0  0  0  0  0  0  0  0  0  0  0  0
  -11.4084   26.8322    6.7112 C   0  0  0  0  0  0  0  0  0  0  0  0
  -11.5287   25.7279    7.5403 C   0  0  0  0  0  0  0  0  0  0  0  0
  -11.3710   24.4333    7.0328 C   0  0  0  0  0  0  0  0  0  0  0  0
  -10.9007   22.7467    5.2114 C   0  0  0  0  0  0  0  0  0  0  0  0
  -12.1834   21.9369    5.2124 C   0  0  0  0  0  0  0  0  0  0  0  0
  -13.2954   22.4227    5.4180 O   0  0  0  0  0  0  0  0  0  0  0  0
  -12.0578   20.6326    4.8310 O   0  0  0  0  0  0  0  0  0  0  0  0
  -11.2597   19.7302    5.6199 C   0  0  0  0  0  0  0  0  0  0  0  0
  -11.6973   19.7074    7.0654 C   0  0  0  0  0  0  0  0  0  0  0  0
  -11.4982   23.3431    8.0307 C   0  0  0  0  0  0  0  0  0  0  0  0
  -12.8785   23.1977    8.6588 C   0  0  0  0  0  0  0  0  0  0  0  0
  -13.2111   21.8480    9.2857 C   0  0  0  0  0  0  0  0  0  0  0  0
  -14.6789   21.4606    9.0701 C   0  0  0  0  0  0  0  0  0  0  0  0
  -15.6141   22.4701    9.7399 C   0  0  0  0  0  0  0  0  0  0  0  0
  -16.4704   23.2144    8.7187 C   0  0  0  0  0  0  0  0  0  0  0  0
  -17.2469   24.3485    9.3841 C   0  0  0  0  0  0  0  0  0  0  0  0
  -17.6329   25.4108    8.3654 C   0  0  0  0  0  0  0  0  0  0  0  0
  -10.5205   22.6834    8.3248 O   0  0  0  0  0  0  0  0  0  0  0  0
  -10.7418   25.1982    3.4724 O   0  0  0  0  0  0  0  0  0  0  0  0
  -11.0704   27.7037    4.4787 O   0  0  0  0  0  0  0  0  0  0  0  0
  -11.5857   28.1062    7.1899 O   0  0  0  0  0  0  0  0  0  0  0  0
  -11.7206   24.5416    2.6625 C   0  0  0  0  0  0  0  0  0  0  0  0
   -9.8893   28.4771    4.7123 C   0  0  0  0  0  0  0  0  0  0  0  0
  -11.1097   28.3426    8.5246 C   0  0  0  0  0  0  0  0  0  0  0  0
  -11.7514   25.8384    8.5954 H   0  0  0  0  0  0  0  0  0  0  0  0
  -10.1474   22.2933    5.8643 H   0  0  0  0  0  0  0  0  0  0  0  0
  -10.4612   22.7213    4.2086 H   0  0  0  0  0  0  0  0  0  0  0  0
  -10.1968   19.9686    5.5333 H   0  0  0  0  0  0  0  0  0  0  0  0
  -11.4236   18.7325    5.2046 H   0  0  0  0  0  0  0  0  0  0  0  0
  -11.1982   18.9353    7.6565 H   0  0  0  0  0  0  0  0  0  0  0  0
  -12.7819   19.5900    7.1606 H   0  0  0  0  0  0  0  0  0  0  0  0
  -11.4130   20.6624    7.4890 H   0  0  0  0  0  0  0  0  0  0  0  0
  -13.6044   23.4306    7.8739 H   0  0  0  0  0  0  0  0  0  0  0  0
  -12.9651   23.9684    9.4342 H   0  0  0  0  0  0  0  0  0  0  0  0
  -12.9838   21.8681   10.3583 H   0  0  0  0  0  0  0  0  0  0  0  0
  -12.5996   21.0390    8.9061 H   0  0  0  0  0  0  0  0  0  0  0  0
  -14.8527   20.4666    9.4999 H   0  0  0  0  0  0  0  0  0  0  0  0
  -14.8849   21.3668    7.9971 H   0  0  0  0  0  0  0  0  0  0  0  0
  -15.0318   23.1952   10.3203 H   0  0  0  0  0  0  0  0  0  0  0  0
  -16.2586   21.9532   10.4576 H   0  0  0  0  0  0  0  0  0  0  0  0
  -17.1686   22.5181    8.2381 H   0  0  0  0  0  0  0  0  0  0  0  0
  -15.8337   23.6187    7.9237 H   0  0  0  0  0  0  0  0  0  0  0  0
  -16.6459   24.8214   10.1693 H   0  0  0  0  0  0  0  0  0  0  0  0
  -18.1454   23.9455    9.8630 H   0  0  0  0  0  0  0  0  0  0  0  0
  -18.2018   26.2068    8.8537 H   0  0  0  0  0  0  0  0  0  0  0  0
  -18.2384   24.9856    7.5653 H   0  0  0  0  0  0  0  0  0  0  0  0
  -16.7365   25.8592    7.9235 H   0  0  0  0  0  0  0  0  0  0  0  0
  -11.3971   24.6303    1.6188 H   0  0  0  0  0  0  0  0  0  0  0  0
  -12.7145   24.9880    2.7568 H   0  0  0  0  0  0  0  0  0  0  0  0
  -11.7761   23.4710    2.8636 H   0  0  0  0  0  0  0  0  0  0  0  0
   -9.9293   29.3626    4.0704 H   0  0  0  0  0  0  0  0  0  0  0  0
   -8.9979   27.9004    4.4423 H   0  0  0  0  0  0  0  0  0  0  0  0
   -9.8003   28.8328    5.7404 H   0  0  0  0  0  0  0  0  0  0  0  0
  -11.2520   29.3988    8.7527 H   0  0  0  0  0  0  0  0  0  0  0  0
  -10.0435   28.1115    8.5875 H   0  0  0  0  0  0  0  0  0  0  0  0
  -11.6788   27.7765    9.2640 H   0  0  0  0  0  0  0  0  0  0  0  0
  1  2  2  0  0  0  0
  1  6  1  0  0  0  0
  1  7  1  0  0  0  0
  2  3  1  0  0  0  0
  2 22  1  0  0  0  0
  3  4  2  0  0  0  0
  3 23  1  0  0  0  0
  4  5  1  0  0  0  0
  4 24  1  0  0  0  0
  5  6  2  0  0  0  0
  5 28  1  0  0  0  0
  6 13  1  0  0  0  0
  7  8  1  0  0  0  0
  7 29  1  0  0  0  0
  7 30  1  0  0  0  0
  8  9  2  0  0  0  0
  8 10  1  0  0  0  0
 10 11  1  0  0  0  0
 11 12  1  0  0  0  0
 11 31  1  0  0  0  0
 11 32  1  0  0  0  0
 12 33  1  0  0  0  0
 12 34  1  0  0  0  0
 12 35  1  0  0  0  0
 13 14  1  0  0  0  0
 13 21  2  0  0  0  0
 14 15  1  0  0  0  0
 14 36  1  0  0  0  0
 14 37  1  0  0  0  0
 15 16  1  0  0  0  0
 15 38  1  0  0  0  0
 15 39  1  0  0  0  0
 16 17  1  0  0  0  0
 16 40  1  0  0  0  0
 16 41  1  0  0  0  0
 17 18  1  0  0  0  0
 17 42  1  0  0  0  0
 17 43  1  0  0  0  0
 18 19  1  0  0  0  0
 18 44  1  0  0  0  0
 18 45  1  0  0  0  0
 19 20  1  0  0  0  0
 19 46  1  0  0  0  0
 19 47  1  0  0  0  0
 20 48  1  0  0  0  0
 20 49  1  0  0  0  0
 20 50  1  0  0  0  0
 22 25  1  0  0  0  0
 23 26  1  0  0  0  0
 24 27  1  0  0  0  0
 25 51  1  0  0  0  0
 25 52  1  0  0  0  0
 25 53  1  0  0  0  0
 26 54  1  0  0  0  0
 26 55  1  0  0  0  0
 26 56  1  0  0  0  0
 27 57  1  0  0  0  0
 27 58  1  0  0  0  0
 27 59  1  0  0  0  0
M  END
$$$$
