TOR
 OpenBabel04091912553D

 43 45  0  0  1  0  0  0  0  0999 V2000
   17.1489    7.9029   13.3704 C   0  0  0  0  0  0  0  0  0  0  0  0
   16.4150    6.6047   13.6817 C   0  0  0  0  0  0  0  0  0  0  0  0
   15.2270    6.8878   14.6019 C   0  0  0  0  0  0  0  0  0  0  0  0
   17.3230    5.7100   14.3231 O   0  0  0  0  0  0  0  0  0  0  0  0
   15.9461    6.0050   12.4663 O   0  0  0  0  0  0  0  0  0  0  0  0
   15.9802    4.5898   12.7351 C   0  0  1  0  0  0  0  0  0  0  0  0
   16.1393    3.8099   11.4412 C   0  0  2  0  0  0  0  0  0  0  0  0
   16.0163    2.4037   11.6860 O   0  0  0  0  0  0  0  0  0  0  0  0
   16.8573    1.7816   10.7129 C   0  0  0  0  0  0  0  0  0  0  0  0
   16.0602    1.4812    9.4449 C   0  0  0  0  0  0  0  0  0  0  0  0
   17.4203    0.4984   11.3054 C   0  0  0  0  0  0  0  0  0  0  0  0
   17.9178    2.6747   10.3810 O   0  0  0  0  0  0  0  0  0  0  0  0
   17.4959    3.9898   10.7798 C   0  0  2  0  0  0  0  0  0  0  0  0
   18.5321    4.5934   11.7238 C   0  0  0  0  0  0  0  0  0  0  0  0
   18.3965    4.0601   13.0396 O   0  0  0  0  0  0  0  0  0  0  0  0
   17.1740    4.4285   13.6903 C   0  0  1  0  0  0  0  0  0  0  0  0
   16.9392    3.3921   14.7958 C   0  0  0  0  0  0  0  0  0  0  0  0
   15.6974    3.6178   15.4349 O   0  0  0  0  0  0  0  0  0  0  0  0
   15.3213    2.8070   16.7781 S   0  0  0  0  0  0  0  0  0  0  0  0
   16.2238    3.1935   17.8330 O   0  0  0  0  0  0  0  0  0  0  0  0
   13.8826    2.8826   16.9382 O   0  0  0  0  0  0  0  0  0  0  0  0
   15.6544    1.2261   16.4071 N   0  0  0  0  0  0  0  0  0  0  0  0
   17.5176    8.3809   14.2851 H   0  0  0  0  0  0  0  0  0  0  0  0
   16.5049    8.6075   12.8349 H   0  0  0  0  0  0  0  0  0  0  0  0
   18.0224    7.7147   12.7380 H   0  0  0  0  0  0  0  0  0  0  0  0
   14.6781    5.9714   14.8383 H   0  0  0  0  0  0  0  0  0  0  0  0
   14.5148    7.5664   14.1210 H   0  0  0  0  0  0  0  0  0  0  0  0
   15.5505    7.3220   15.5537 H   0  0  0  0  0  0  0  0  0  0  0  0
   15.0319    4.3185   13.2117 H   0  0  0  0  0  0  0  0  0  0  0  0
   15.3497    4.0986   10.7352 H   0  0  0  0  0  0  0  0  0  0  0  0
   15.2200    0.8124    9.6535 H   0  0  0  0  0  0  0  0  0  0  0  0
   16.6980    1.0297    8.6769 H   0  0  0  0  0  0  0  0  0  0  0  0
   15.6469    2.3997    9.0140 H   0  0  0  0  0  0  0  0  0  0  0  0
   18.0447   -0.0382   10.5830 H   0  0  0  0  0  0  0  0  0  0  0  0
   16.6162   -0.1653   11.6427 H   0  0  0  0  0  0  0  0  0  0  0  0
   18.0465    0.7178   12.1780 H   0  0  0  0  0  0  0  0  0  0  0  0
   17.4301    4.6051    9.8766 H   0  0  0  0  0  0  0  0  0  0  0  0
   18.4455    5.6823   11.7619 H   0  0  0  0  0  0  0  0  0  0  0  0
   19.5426    4.3540   11.3772 H   0  0  0  0  0  0  0  0  0  0  0  0
   17.7514    3.4366   15.5329 H   0  0  0  0  0  0  0  0  0  0  0  0
   16.9479    2.3869   14.3537 H   0  0  0  0  0  0  0  0  0  0  0  0
   15.5144    0.5386   17.1346 H   0  0  0  0  0  0  0  0  0  0  0  0
   16.0610    0.9770   15.5173 H   0  0  0  0  0  0  0  0  0  0  0  0
  1  2  1  0  0  0  0
  1 23  1  0  0  0  0
  1 24  1  0  0  0  0
  1 25  1  0  0  0  0
  2  3  1  0  0  0  0
  2  4  1  0  0  0  0
  2  5  1  0  0  0  0
  3 26  1  0  0  0  0
  3 27  1  0  0  0  0
  3 28  1  0  0  0  0
  4 16  1  0  0  0  0
  5  6  1  0  0  0  0
  6  7  1  0  0  0  0
  6 16  1  0  0  0  0
  6 29  1  1  0  0  0
  7  8  1  0  0  0  0
  7 13  1  0  0  0  0
  7 30  1  6  0  0  0
  8  9  1  0  0  0  0
  9 10  1  0  0  0  0
  9 11  1  0  0  0  0
  9 12  1  0  0  0  0
 10 31  1  0  0  0  0
 10 32  1  0  0  0  0
 10 33  1  0  0  0  0
 11 34  1  0  0  0  0
 11 35  1  0  0  0  0
 11 36  1  0  0  0  0
 12 13  1  0  0  0  0
 13 14  1  0  0  0  0
 13 37  1  6  0  0  0
 14 15  1  0  0  0  0
 14 38  1  0  0  0  0
 14 39  1  0  0  0  0
 15 16  1  0  0  0  0
 16 17  1  1  0  0  0
 17 18  1  0  0  0  0
 17 40  1  0  0  0  0
 17 41  1  0  0  0  0
 18 19  1  0  0  0  0
 19 20  2  0  0  0  0
 19 21  2  0  0  0  0
 19 22  1  0  0  0  0
 22 42  1  0  0  0  0
 22 43  1  0  0  0  0
M  END
$$$$
