TPP
 OpenBabel04091911473D

 42 43  0  0  0  0  0  0  0  0999 V2000
  -35.6037   59.8136   18.2587 N   0  0  0  0  0  0  0  0  0  0  0  0
  -36.3491   60.8146   17.7597 C   0  0  0  0  0  0  0  0  0  0  0  0
  -36.7006   60.7307   16.2979 C   0  0  0  0  0  0  0  0  0  0  0  0
  -36.8128   61.8460   18.5061 N   0  0  0  0  0  0  0  0  0  0  0  0
  -36.4858   61.8896   19.8119 C   0  0  0  0  0  0  0  0  0  0  0  0
  -36.9991   62.9532   20.5161 N   0  0  0  0  0  0  0  0  0  0  0  0
  -35.6926   60.9170   20.3953 C   0  0  0  0  0  0  0  0  0  0  0  0
  -35.2916   59.8977   19.5508 C   0  0  0  0  0  0  0  0  0  0  0  0
  -35.2358   60.8796   21.8175 C   0  0  0  0  0  0  0  0  0  0  0  0
  -34.2024   61.8848   22.0784 N   0  3  0  0  0  0  0  0  0  0  0  0
  -34.6044   63.0640   22.5982 C   0  0  0  0  0  0  0  0  0  0  0  0
  -33.3375   64.1278   22.8380 S   0  0  0  0  0  0  0  0  0  0  0  0
  -32.2143   63.0005   22.2052 C   0  0  0  0  0  0  0  0  0  0  0  0
  -32.8403   61.8097   21.8842 C   0  0  0  0  0  0  0  0  0  0  0  0
  -32.1664   60.5624   21.3869 C   0  0  0  0  0  0  0  0  0  0  0  0
  -30.8015   63.4457   22.0960 C   0  0  0  0  0  0  0  0  0  0  0  0
  -30.6399   64.4813   20.9728 C   0  0  0  0  0  0  0  0  0  0  0  0
  -29.4608   65.1837   21.2454 O   0  0  0  0  0  0  0  0  0  0  0  0
  -28.9456   66.4273   20.3315 P   0  0  2  0  0  0  0  0  0  0  0  0
  -29.6725   66.3311   18.9937 O   0  0  0  0  0  0  0  0  0  0  0  0
  -27.4369   66.2940   20.2746 O   0  0  0  0  0  0  0  0  0  0  0  0
  -29.4828   67.7182   21.1188 O   0  0  0  0  0  0  0  0  0  0  0  0
  -29.2385   68.3159   22.6019 P   0  0  0  0  0  0  0  0  0  0  0  0
  -27.8088   67.9925   23.0027 O   0  0  0  0  0  0  0  0  0  0  0  0
  -29.4892   69.8197   22.4520 O   0  0  0  0  0  0  0  0  0  0  0  0
  -30.2944   67.6417   23.4817 O   0  0  0  0  0  0  0  0  0  0  0  0
  -36.2753   59.8235   15.8476 H   0  0  0  0  0  0  0  0  0  0  0  0
  -36.3073   61.5870   15.7437 H   0  0  0  0  0  0  0  0  0  0  0  0
  -37.7843   60.6831   16.1591 H   0  0  0  0  0  0  0  0  0  0  0  0
  -36.9411   63.1179   21.5084 H   0  0  0  0  0  0  0  0  0  0  0  0
  -37.4970   63.6562   19.9926 H   0  0  0  0  0  0  0  0  0  0  0  0
  -34.6696   59.0848   19.9177 H   0  0  0  0  0  0  0  0  0  0  0  0
  -34.8493   59.8915   22.0898 H   0  0  0  0  0  0  0  0  0  0  0  0
  -36.1104   61.0279   22.4880 H   0  0  0  0  0  0  0  0  0  0  0  0
  -35.6080   63.3508   22.8481 H   0  0  0  0  0  0  0  0  0  0  0  0
  -31.0827   60.7260   21.2978 H   0  0  0  0  0  0  0  0  0  0  0  0
  -32.5075   60.2580   20.3987 H   0  0  0  0  0  0  0  0  0  0  0  0
  -32.2842   59.7265   22.0852 H   0  0  0  0  0  0  0  0  0  0  0  0
  -30.1336   62.5917   21.9331 H   0  0  0  0  0  0  0  0  0  0  0  0
  -30.4972   63.8573   23.0665 H   0  0  0  0  0  0  0  0  0  0  0  0
  -31.5055   65.1516   20.9170 H   0  0  0  0  0  0  0  0  0  0  0  0
  -30.5703   63.9478   20.0160 H   0  0  0  0  0  0  0  0  0  0  0  0
  1  2  2  0  0  0  0
  1  8  1  0  0  0  0
  2  3  1  0  0  0  0
  2  4  1  0  0  0  0
  3 27  1  0  0  0  0
  3 28  1  0  0  0  0
  3 29  1  0  0  0  0
  4  5  2  0  0  0  0
  5  6  1  0  0  0  0
  5  7  1  0  0  0  0
  6 30  1  0  0  0  0
  6 31  1  0  0  0  0
  7  8  2  0  0  0  0
  7  9  1  0  0  0  0
  8 32  1  0  0  0  0
  9 10  1  0  0  0  0
  9 33  1  0  0  0  0
  9 34  1  0  0  0  0
 10 11  2  0  0  0  0
 10 14  1  0  0  0  0
 11 12  1  0  0  0  0
 11 35  1  0  0  0  0
 12 13  1  0  0  0  0
 13 14  2  0  0  0  0
 13 16  1  0  0  0  0
 14 15  1  0  0  0  0
 15 36  1  0  0  0  0
 15 37  1  0  0  0  0
 15 38  1  0  0  0  0
 16 17  1  0  0  0  0
 16 39  1  0  0  0  0
 16 40  1  0  0  0  0
 17 18  1  0  0  0  0
 17 41  1  0  0  0  0
 17 42  1  0  0  0  0
 19 18  1  1  0  0  0
 19 20  2  0  0  0  0
 19 21  1  0  0  0  0
 19 22  1  0  0  0  0
 22 23  1  0  0  0  0
 23 24  2  0  0  0  0
 23 25  1  0  0  0  0
 23 26  1  0  0  0  0
M  CHG  1  10   1
M  END
$$$$
