TSV
 OpenBabel04091915193D

 95100  0  0  1  0  0  0  0  0999 V2000
  -12.5719   -6.1324   17.1662 C   0  0  0  0  0  0  0  0  0  0  0  0
  -15.0851  -15.0162   18.2026 F   0  0  0  0  0  0  0  0  0  0  0  0
  -18.2642   -9.2661   14.6107 N   0  0  0  0  0  0  0  0  0  0  0  0
  -19.4306  -10.6511   15.8950 O   0  0  0  0  0  0  0  0  0  0  0  0
   -8.8489   -5.9315   13.6826 S   0  0  0  0  0  0  0  0  0  0  0  0
  -12.1953   -6.5488   15.7502 C   0  0  1  0  0  0  0  0  0  0  0  0
  -12.3609   -7.9570   15.3761 N   0  0  0  0  0  0  0  0  0  0  0  0
  -18.0684  -11.5054   14.2477 O   0  0  0  0  0  0  0  0  0  0  0  0
  -13.4649   -5.7434   16.0298 C   0  0  2  0  0  0  0  0  0  0  0  0
  -10.1369   -6.6372   14.4303 N   0  0  0  0  0  0  0  0  0  0  0  0
  -15.6161   -8.4287   15.3631 O   0  0  0  0  0  0  0  0  0  0  0  0
  -10.9886   -5.8533   15.1971 C   0  0  0  0  0  0  0  0  0  0  0  0
  -13.1692  -14.5081   14.3547 N   0  3  0  0  0  0  0  0  0  0  0  0
   -7.8839   -5.5856   14.7016 O   0  0  0  0  0  0  0  0  0  0  0  0
  -13.5753   -4.3394   15.5993 C   0  0  0  0  0  0  0  0  0  0  0  0
  -14.8965   -9.7104   13.6289 N   0  0  0  0  0  0  0  0  0  0  0  0
  -12.3016  -13.7573   12.3684 O   0  0  0  0  0  0  0  0  0  0  0  0
  -18.9210  -12.9248   16.7315 C   0  0  0  0  0  0  0  0  0  0  0  0
   -9.3383   -4.9871   12.7096 O   0  0  0  0  0  0  0  0  0  0  0  0
  -20.9444  -11.6539   17.4470 C   0  0  0  0  0  0  0  0  0  0  0  0
  -13.0879   -7.4828   13.2562 O   0  0  0  0  0  0  0  0  0  0  0  0
  -20.8166  -12.5207   15.1130 C   0  0  0  0  0  0  0  0  0  0  0  0
  -13.9122  -12.5411   13.4955 O   0  0  0  0  0  0  0  0  0  0  0  0
  -19.9965  -11.9368   16.2685 C   0  0  0  0  0  0  0  0  0  0  0  0
  -10.7190   -4.6868   15.4934 O   0  0  0  0  0  0  0  0  0  0  0  0
  -14.4708   -3.8377   14.7330 C   0  0  0  0  0  0  0  0  0  0  0  0
  -12.9871   -8.2791   14.1869 C   0  0  0  0  0  0  0  0  0  0  0  0
  -12.5050  -15.7388   14.3899 C   0  0  0  0  0  0  0  0  0  0  0  0
  -15.5550   -4.6375   14.0742 C   0  0  0  0  0  0  0  0  0  0  0  0
  -13.0239  -17.9684   17.2162 C   0  0  0  0  0  0  0  0  0  0  0  0
  -13.5191   -9.7137   14.1106 C   0  0  2  0  0  0  0  0  0  0  0  0
  -12.4523  -17.6424   15.9601 C   0  0  0  0  0  0  0  0  0  0  0  0
  -13.8949  -17.0963   17.9600 C   0  0  0  0  0  0  0  0  0  0  0  0
  -15.4376   -4.6512   12.5536 C   0  0  0  0  0  0  0  0  0  0  0  0
  -16.5743   -5.4481   11.8964 C   0  0  0  0  0  0  0  0  0  0  0  0
  -18.5456  -10.5705   14.8727 C   0  0  0  0  0  0  0  0  0  0  0  0
  -14.2713  -15.8207   17.5100 C   0  0  0  0  0  0  0  0  0  0  0  0
  -16.4768   -6.9600   12.1382 C   0  0  0  0  0  0  0  0  0  0  0  0
   -8.1588   -7.2826   12.7088 C   0  0  0  0  0  0  0  0  0  0  0  0
  -12.8565  -16.3770   15.5494 C   0  0  0  0  0  0  0  0  0  0  0  0
  -17.4802   -7.4394   13.1925 C   0  0  0  0  0  0  0  0  0  0  0  0
  -13.7166  -15.5124   16.2738 C   0  0  0  0  0  0  0  0  0  0  0  0
  -12.7565  -10.4876   13.0316 C   0  0  0  0  0  0  0  0  0  0  0  0
  -17.2537   -8.8893   13.6353 C   0  0  1  0  0  0  0  0  0  0  0  0
   -6.7466   -7.0297   12.2774 C   0  0  0  0  0  0  0  0  0  0  0  0
  -13.7980  -11.4810   12.5274 C   0  0  2  0  0  0  0  0  0  0  0  0
  -13.8854  -14.3634   15.5411 C   0  0  0  0  0  0  0  0  0  0  0  0
   -7.0398   -8.0418   13.3585 C   0  0  0  0  0  0  0  0  0  0  0  0
  -15.8705   -9.0081   14.3031 C   0  0  0  0  0  0  0  0  0  0  0  0
  -15.0893  -10.6645   12.5427 C   0  0  0  0  0  0  0  0  0  0  0  0
  -13.0794  -13.5884   13.2961 C   0  0  0  0  0  0  0  0  0  0  0  0
  -11.9762   -5.3595   17.6433 H   0  0  0  0  0  0  0  0  0  0  0  0
  -12.9282   -6.8895   17.8521 H   0  0  0  0  0  0  0  0  0  0  0  0
  -18.6196   -8.5815   15.2633 H   0  0  0  0  0  0  0  0  0  0  0  0
  -12.3094   -8.6425   16.1217 H   0  0  0  0  0  0  0  0  0  0  0  0
  -14.3996   -6.2910   15.9836 H   0  0  0  0  0  0  0  0  0  0  0  0
  -10.4067   -7.5806   14.1875 H   0  0  0  0  0  0  0  0  0  0  0  0
  -12.8466   -3.6335   16.0037 H   0  0  0  0  0  0  0  0  0  0  0  0
  -19.3666  -13.8758   17.0437 H   0  0  0  0  0  0  0  0  0  0  0  0
  -18.3465  -12.5153   17.5688 H   0  0  0  0  0  0  0  0  0  0  0  0
  -18.2049  -13.1511   15.9379 H   0  0  0  0  0  0  0  0  0  0  0  0
  -21.4294  -12.5686   17.8063 H   0  0  0  0  0  0  0  0  0  0  0  0
  -21.7273  -10.9421   17.1599 H   0  0  0  0  0  0  0  0  0  0  0  0
  -20.4050  -11.1988   18.2858 H   0  0  0  0  0  0  0  0  0  0  0  0
  -21.2771  -13.4735   15.3942 H   0  0  0  0  0  0  0  0  0  0  0  0
  -20.1983  -12.7016   14.2295 H   0  0  0  0  0  0  0  0  0  0  0  0
  -21.6072  -11.8273   14.8062 H   0  0  0  0  0  0  0  0  0  0  0  0
  -14.4303   -2.7750   14.4974 H   0  0  0  0  0  0  0  0  0  0  0  0
  -11.8672  -16.0282   13.5642 H   0  0  0  0  0  0  0  0  0  0  0  0
  -16.5228   -4.2222   14.3758 H   0  0  0  0  0  0  0  0  0  0  0  0
  -15.5386   -5.6689   14.4263 H   0  0  0  0  0  0  0  0  0  0  0  0
  -12.7969  -18.9463   17.6466 H   0  0  0  0  0  0  0  0  0  0  0  0
  -13.4813  -10.2194   15.0823 H   0  0  0  0  0  0  0  0  0  0  0  0
  -11.8053  -18.3113   15.4093 H   0  0  0  0  0  0  0  0  0  0  0  0
  -14.2918  -17.4438   18.9125 H   0  0  0  0  0  0  0  0  0  0  0  0
  -14.4687   -5.0723   12.2546 H   0  0  0  0  0  0  0  0  0  0  0  0
  -15.4641   -3.6221   12.1764 H   0  0  0  0  0  0  0  0  0  0  0  0
  -16.5274   -5.2680   10.8169 H   0  0  0  0  0  0  0  0  0  0  0  0
  -17.5418   -5.0632   12.2400 H   0  0  0  0  0  0  0  0  0  0  0  0
  -15.4544   -7.2198   12.4204 H   0  0  0  0  0  0  0  0  0  0  0  0
  -16.6784   -7.4919   11.2006 H   0  0  0  0  0  0  0  0  0  0  0  0
   -8.8372   -7.7919   12.0438 H   0  0  0  0  0  0  0  0  0  0  0  0
  -18.4948   -7.3465   12.7847 H   0  0  0  0  0  0  0  0  0  0  0  0
  -17.4458   -6.7834   14.0699 H   0  0  0  0  0  0  0  0  0  0  0  0
  -11.8633  -10.9666   13.4449 H   0  0  0  0  0  0  0  0  0  0  0  0
  -12.4457   -9.8269   12.2125 H   0  0  0  0  0  0  0  0  0  0  0  0
  -17.3402   -9.5524   12.7714 H   0  0  0  0  0  0  0  0  0  0  0  0
   -6.2832   -6.0895   12.5630 H   0  0  0  0  0  0  0  0  0  0  0  0
   -6.4757   -7.3703   11.2869 H   0  0  0  0  0  0  0  0  0  0  0  0
  -13.5863  -11.8728   11.5283 H   0  0  0  0  0  0  0  0  0  0  0  0
  -14.4457  -13.4618   15.7476 H   0  0  0  0  0  0  0  0  0  0  0  0
   -6.9440   -9.0930   13.1193 H   0  0  0  0  0  0  0  0  0  0  0  0
   -6.7482   -7.7971   14.3753 H   0  0  0  0  0  0  0  0  0  0  0  0
  -15.2191  -10.0918   11.6182 H   0  0  0  0  0  0  0  0  0  0  0  0
  -15.9676  -11.2893   12.7222 H   0  0  0  0  0  0  0  0  0  0  0  0
  1  6  1  0  0  0  0
  1  9  1  0  0  0  0
  1 52  1  0  0  0  0
  1 53  1  0  0  0  0
  2 37  1  0  0  0  0
  3 36  1  0  0  0  0
  3 44  1  0  0  0  0
  3 54  1  0  0  0  0
  4 24  1  0  0  0  0
  4 36  1  0  0  0  0
  5 10  1  0  0  0  0
  5 14  2  0  0  0  0
  5 19  2  0  0  0  0
  5 39  1  0  0  0  0
  6  7  1  0  0  0  0
  6  9  1  0  0  0  0
  6 12  1  6  0  0  0
  7 27  1  0  0  0  0
  7 55  1  0  0  0  0
  8 36  2  0  0  0  0
  9 15  1  0  0  0  0
  9 56  1  6  0  0  0
 10 12  1  0  0  0  0
 10 57  1  0  0  0  0
 11 49  2  0  0  0  0
 12 25  2  0  0  0  0
 13 28  1  0  0  0  0
 13 47  1  0  0  0  0
 13 51  1  0  0  0  0
 15 26  2  0  0  0  0
 15 58  1  0  0  0  0
 16 31  1  0  0  0  0
 16 49  1  0  0  0  0
 16 50  1  0  0  0  0
 17 51  2  0  0  0  0
 18 24  1  0  0  0  0
 18 59  1  0  0  0  0
 18 60  1  0  0  0  0
 18 61  1  0  0  0  0
 20 24  1  0  0  0  0
 20 62  1  0  0  0  0
 20 63  1  0  0  0  0
 20 64  1  0  0  0  0
 21 27  2  0  0  0  0
 22 24  1  0  0  0  0
 22 65  1  0  0  0  0
 22 66  1  0  0  0  0
 22 67  1  0  0  0  0
 23 46  1  0  0  0  0
 23 51  1  0  0  0  0
 26 29  1  0  0  0  0
 26 68  1  0  0  0  0
 27 31  1  0  0  0  0
 28 40  2  0  0  0  0
 28 69  1  0  0  0  0
 29 34  1  0  0  0  0
 29 70  1  0  0  0  0
 29 71  1  0  0  0  0
 30 32  2  0  0  0  0
 30 33  1  0  0  0  0
 30 72  1  0  0  0  0
 31 43  1  0  0  0  0
 31 73  1  1  0  0  0
 32 40  1  0  0  0  0
 32 74  1  0  0  0  0
 33 37  2  0  0  0  0
 33 75  1  0  0  0  0
 34 35  1  0  0  0  0
 34 76  1  0  0  0  0
 34 77  1  0  0  0  0
 35 38  1  0  0  0  0
 35 78  1  0  0  0  0
 35 79  1  0  0  0  0
 37 42  1  0  0  0  0
 38 41  1  0  0  0  0
 38 80  1  0  0  0  0
 38 81  1  0  0  0  0
 39 45  1  0  0  0  0
 39 48  1  0  0  0  0
 39 82  1  0  0  0  0
 40 42  1  0  0  0  0
 41 44  1  0  0  0  0
 41 83  1  0  0  0  0
 41 84  1  0  0  0  0
 42 47  2  0  0  0  0
 43 46  1  0  0  0  0
 43 85  1  0  0  0  0
 43 86  1  0  0  0  0
 44 49  1  0  0  0  0
 44 87  1  6  0  0  0
 45 48  1  0  0  0  0
 45 88  1  0  0  0  0
 45 89  1  0  0  0  0
 46 50  1  0  0  0  0
 46 90  1  6  0  0  0
 47 91  1  0  0  0  0
 48 92  1  0  0  0  0
 48 93  1  0  0  0  0
 50 94  1  0  0  0  0
 50 95  1  0  0  0  0
M  CHG  1  13   1
M  END
$$$$
