TSV
 OpenBabel04091915193D

 95100  0  0  1  0  0  0  0  0999 V2000
  -12.5136   -6.1751   17.1017 C   0  0  0  0  0  0  0  0  0  0  0  0
  -15.5460  -14.0242   18.8466 F   0  0  0  0  0  0  0  0  0  0  0  0
  -18.2204   -9.4618   14.7024 N   0  0  0  0  0  0  0  0  0  0  0  0
  -19.1026  -10.9150   16.1533 O   0  0  0  0  0  0  0  0  0  0  0  0
   -8.7817   -6.0100   13.6127 S   0  0  0  0  0  0  0  0  0  0  0  0
  -12.1430   -6.6179   15.6910 C   0  0  1  0  0  0  0  0  0  0  0  0
  -12.3076   -8.0378   15.3580 N   0  0  0  0  0  0  0  0  0  0  0  0
  -17.8207  -11.6858   14.4082 O   0  0  0  0  0  0  0  0  0  0  0  0
  -13.4144   -5.8131   15.9645 C   0  0  2  0  0  0  0  0  0  0  0  0
  -10.0845   -6.7167   14.3421 N   0  0  0  0  0  0  0  0  0  0  0  0
  -15.5910   -8.4817   15.3586 O   0  0  0  0  0  0  0  0  0  0  0  0
  -10.9289   -5.9198   15.1144 C   0  0  0  0  0  0  0  0  0  0  0  0
  -13.4713  -14.4748   15.0827 N   0  3  0  0  0  0  0  0  0  0  0  0
   -7.8396   -5.6250   14.6298 O   0  0  0  0  0  0  0  0  0  0  0  0
  -13.5413   -4.4138   15.5230 C   0  0  0  0  0  0  0  0  0  0  0  0
  -14.8741   -9.8274   13.6741 N   0  0  0  0  0  0  0  0  0  0  0  0
  -12.4942  -14.1554   13.0330 O   0  0  0  0  0  0  0  0  0  0  0  0
  -18.1818  -13.0625   17.0079 C   0  0  0  0  0  0  0  0  0  0  0  0
   -9.2539   -5.0751   12.6030 O   0  0  0  0  0  0  0  0  0  0  0  0
  -20.2531  -12.0337   17.9269 C   0  0  0  0  0  0  0  0  0  0  0  0
  -13.0123   -7.6551   13.2092 O   0  0  0  0  0  0  0  0  0  0  0  0
  -20.2995  -12.9906   15.6267 C   0  0  0  0  0  0  0  0  0  0  0  0
  -14.0093  -12.6281   13.8686 O   0  0  0  0  0  0  0  0  0  0  0  0
  -19.4294  -12.2458   16.6452 C   0  0  0  0  0  0  0  0  0  0  0  0
  -10.6642   -4.7631   15.3975 O   0  0  0  0  0  0  0  0  0  0  0  0
  -14.4710   -3.9272   14.6851 C   0  0  0  0  0  0  0  0  0  0  0  0
  -12.9383   -8.4033   14.1815 C   0  0  0  0  0  0  0  0  0  0  0  0
  -12.9448  -15.7347   15.3866 C   0  0  0  0  0  0  0  0  0  0  0  0
  -15.5684   -4.7427   14.0718 C   0  0  0  0  0  0  0  0  0  0  0  0
  -13.8076  -17.3110   18.5667 C   0  0  0  0  0  0  0  0  0  0  0  0
  -13.5058   -9.8265   14.1818 C   0  0  2  0  0  0  0  0  0  0  0  0
  -13.1605  -17.2998   17.2986 C   0  0  0  0  0  0  0  0  0  0  0  0
  -14.5958  -16.2225   19.0811 C   0  0  0  0  0  0  0  0  0  0  0  0
  -15.4469   -4.8217   12.5546 C   0  0  0  0  0  0  0  0  0  0  0  0
  -16.6165   -5.6028   11.9404 C   0  0  0  0  0  0  0  0  0  0  0  0
  -18.3423  -10.7779   15.0397 C   0  0  0  0  0  0  0  0  0  0  0  0
  -14.8134  -15.0315   18.3676 C   0  0  0  0  0  0  0  0  0  0  0  0
  -16.5199   -7.1135   12.1877 C   0  0  0  0  0  0  0  0  0  0  0  0
   -8.0498   -7.3622   12.6687 C   0  0  0  0  0  0  0  0  0  0  0  0
  -13.4030  -16.1059   16.6252 C   0  0  0  0  0  0  0  0  0  0  0  0
  -17.5313   -7.6087   13.2311 C   0  0  0  0  0  0  0  0  0  0  0  0
  -14.1883  -15.0335   17.1269 C   0  0  0  0  0  0  0  0  0  0  0  0
  -12.7409  -10.7015   13.1820 C   0  0  0  0  0  0  0  0  0  0  0  0
  -17.2548   -9.0476   13.6913 C   0  0  1  0  0  0  0  0  0  0  0  0
   -6.6228   -7.1305   12.2776 C   0  0  0  0  0  0  0  0  0  0  0  0
  -13.7987  -11.7153   12.7624 C   0  0  2  0  0  0  0  0  0  0  0  0
  -14.2161  -14.0371   16.1902 C   0  0  0  0  0  0  0  0  0  0  0  0
   -6.9569   -8.1017   13.3837 C   0  0  0  0  0  0  0  0  0  0  0  0
  -15.8512   -9.1090   14.3270 C   0  0  0  0  0  0  0  0  0  0  0  0
  -15.0452  -10.8328   12.6259 C   0  0  0  0  0  0  0  0  0  0  0  0
  -13.2761  -13.7655   13.8818 C   0  0  0  0  0  0  0  0  0  0  0  0
  -11.9232   -5.3875   17.5616 H   0  0  0  0  0  0  0  0  0  0  0  0
  -12.8735   -6.9132   17.8069 H   0  0  0  0  0  0  0  0  0  0  0  0
  -18.5981   -8.7867   15.3532 H   0  0  0  0  0  0  0  0  0  0  0  0
  -12.2708   -8.6951   16.1294 H   0  0  0  0  0  0  0  0  0  0  0  0
  -14.3465   -6.3646   15.9409 H   0  0  0  0  0  0  0  0  0  0  0  0
  -10.3709   -7.6471   14.0681 H   0  0  0  0  0  0  0  0  0  0  0  0
  -12.8040   -3.6991   15.8942 H   0  0  0  0  0  0  0  0  0  0  0  0
  -18.4559  -14.0472   17.4038 H   0  0  0  0  0  0  0  0  0  0  0  0
  -17.5774  -12.5431   17.7589 H   0  0  0  0  0  0  0  0  0  0  0  0
  -17.5332  -13.2355   16.1461 H   0  0  0  0  0  0  0  0  0  0  0  0
  -20.5571  -12.9867   18.3751 H   0  0  0  0  0  0  0  0  0  0  0  0
  -21.1563  -11.4479   17.7217 H   0  0  0  0  0  0  0  0  0  0  0  0
  -19.6806  -11.4709   18.6734 H   0  0  0  0  0  0  0  0  0  0  0  0
  -20.5828  -13.9828   15.9933 H   0  0  0  0  0  0  0  0  0  0  0  0
  -19.7824  -13.1253   14.6728 H   0  0  0  0  0  0  0  0  0  0  0  0
  -21.2125  -12.4251   15.4104 H   0  0  0  0  0  0  0  0  0  0  0  0
  -14.4472   -2.8674   14.4324 H   0  0  0  0  0  0  0  0  0  0  0  0
  -12.3157  -16.2435   14.6627 H   0  0  0  0  0  0  0  0  0  0  0  0
  -16.5301   -4.3027   14.3576 H   0  0  0  0  0  0  0  0  0  0  0  0
  -15.5716   -5.7589   14.4675 H   0  0  0  0  0  0  0  0  0  0  0  0
  -13.7034  -18.1981   19.1934 H   0  0  0  0  0  0  0  0  0  0  0  0
  -13.5051  -10.2640   15.1869 H   0  0  0  0  0  0  0  0  0  0  0  0
  -12.5716  -18.1301   16.9340 H   0  0  0  0  0  0  0  0  0  0  0  0
  -15.0483  -16.3214   20.0666 H   0  0  0  0  0  0  0  0  0  0  0  0
  -14.4938   -5.2919   12.2765 H   0  0  0  0  0  0  0  0  0  0  0  0
  -15.4310   -3.8097   12.1337 H   0  0  0  0  0  0  0  0  0  0  0  0
  -16.6040   -5.4273   10.8593 H   0  0  0  0  0  0  0  0  0  0  0  0
  -17.5661   -5.2045   12.3165 H   0  0  0  0  0  0  0  0  0  0  0  0
  -15.4982   -7.3649   12.4830 H   0  0  0  0  0  0  0  0  0  0  0  0
  -16.7019   -7.6472   11.2474 H   0  0  0  0  0  0  0  0  0  0  0  0
   -8.7050   -7.8843   11.9923 H   0  0  0  0  0  0  0  0  0  0  0  0
  -18.5408   -7.5565   12.8036 H   0  0  0  0  0  0  0  0  0  0  0  0
  -17.5327   -6.9395   14.1000 H   0  0  0  0  0  0  0  0  0  0  0  0
  -11.8588  -11.1545   13.6429 H   0  0  0  0  0  0  0  0  0  0  0  0
  -12.4179  -10.1163   12.3123 H   0  0  0  0  0  0  0  0  0  0  0  0
  -17.3380   -9.7227   12.8370 H   0  0  0  0  0  0  0  0  0  0  0  0
   -6.1620   -6.1830   12.5414 H   0  0  0  0  0  0  0  0  0  0  0  0
   -6.3158   -7.5164   11.3147 H   0  0  0  0  0  0  0  0  0  0  0  0
  -13.5693  -12.2489   11.8345 H   0  0  0  0  0  0  0  0  0  0  0  0
  -14.6910  -13.0715   16.1800 H   0  0  0  0  0  0  0  0  0  0  0  0
   -6.8657   -9.1623   13.1908 H   0  0  0  0  0  0  0  0  0  0  0  0
   -6.6930   -7.8198   14.3993 H   0  0  0  0  0  0  0  0  0  0  0  0
  -15.0613  -10.3013   11.6686 H   0  0  0  0  0  0  0  0  0  0  0  0
  -15.9702  -11.3975   12.7536 H   0  0  0  0  0  0  0  0  0  0  0  0
  1  6  1  0  0  0  0
  1  9  1  0  0  0  0
  1 52  1  0  0  0  0
  1 53  1  0  0  0  0
  2 37  1  0  0  0  0
  3 36  1  0  0  0  0
  3 44  1  0  0  0  0
  3 54  1  0  0  0  0
  4 24  1  0  0  0  0
  4 36  1  0  0  0  0
  5 10  1  0  0  0  0
  5 14  2  0  0  0  0
  5 19  2  0  0  0  0
  5 39  1  0  0  0  0
  6  7  1  0  0  0  0
  6  9  1  0  0  0  0
  6 12  1  6  0  0  0
  7 27  1  0  0  0  0
  7 55  1  0  0  0  0
  8 36  2  0  0  0  0
  9 15  1  0  0  0  0
  9 56  1  6  0  0  0
 10 12  1  0  0  0  0
 10 57  1  0  0  0  0
 11 49  2  0  0  0  0
 12 25  2  0  0  0  0
 13 28  1  0  0  0  0
 13 47  1  0  0  0  0
 13 51  1  0  0  0  0
 15 26  2  0  0  0  0
 15 58  1  0  0  0  0
 16 31  1  0  0  0  0
 16 49  1  0  0  0  0
 16 50  1  0  0  0  0
 17 51  2  0  0  0  0
 18 24  1  0  0  0  0
 18 59  1  0  0  0  0
 18 60  1  0  0  0  0
 18 61  1  0  0  0  0
 20 24  1  0  0  0  0
 20 62  1  0  0  0  0
 20 63  1  0  0  0  0
 20 64  1  0  0  0  0
 21 27  2  0  0  0  0
 22 24  1  0  0  0  0
 22 65  1  0  0  0  0
 22 66  1  0  0  0  0
 22 67  1  0  0  0  0
 23 46  1  0  0  0  0
 23 51  1  0  0  0  0
 26 29  1  0  0  0  0
 26 68  1  0  0  0  0
 27 31  1  0  0  0  0
 28 40  2  0  0  0  0
 28 69  1  0  0  0  0
 29 34  1  0  0  0  0
 29 70  1  0  0  0  0
 29 71  1  0  0  0  0
 30 32  2  0  0  0  0
 30 33  1  0  0  0  0
 30 72  1  0  0  0  0
 31 43  1  0  0  0  0
 31 73  1  1  0  0  0
 32 40  1  0  0  0  0
 32 74  1  0  0  0  0
 33 37  2  0  0  0  0
 33 75  1  0  0  0  0
 34 35  1  0  0  0  0
 34 76  1  0  0  0  0
 34 77  1  0  0  0  0
 35 38  1  0  0  0  0
 35 78  1  0  0  0  0
 35 79  1  0  0  0  0
 37 42  1  0  0  0  0
 38 41  1  0  0  0  0
 38 80  1  0  0  0  0
 38 81  1  0  0  0  0
 39 45  1  0  0  0  0
 39 48  1  0  0  0  0
 39 82  1  0  0  0  0
 40 42  1  0  0  0  0
 41 44  1  0  0  0  0
 41 83  1  0  0  0  0
 41 84  1  0  0  0  0
 42 47  2  0  0  0  0
 43 46  1  0  0  0  0
 43 85  1  0  0  0  0
 43 86  1  0  0  0  0
 44 49  1  0  0  0  0
 44 87  1  6  0  0  0
 45 48  1  0  0  0  0
 45 88  1  0  0  0  0
 45 89  1  0  0  0  0
 46 50  1  0  0  0  0
 46 90  1  6  0  0  0
 47 91  1  0  0  0  0
 48 92  1  0  0  0  0
 48 93  1  0  0  0  0
 50 94  1  0  0  0  0
 50 95  1  0  0  0  0
M  CHG  1  13   1
M  END
$$$$
