TSV
 OpenBabel04091915193D

 95100  0  0  1  0  0  0  0  0999 V2000
  -12.5217   -6.3112   17.2475 C   0  0  0  0  0  0  0  0  0  0  0  0
  -15.5413  -15.0754   18.4760 F   0  0  0  0  0  0  0  0  0  0  0  0
  -18.2654   -9.4324   14.7016 N   0  0  0  0  0  0  0  0  0  0  0  0
  -19.2513  -10.8408   16.1262 O   0  0  0  0  0  0  0  0  0  0  0  0
   -8.7768   -6.2379   13.7807 S   0  0  0  0  0  0  0  0  0  0  0  0
  -12.1529   -6.7704   15.8414 C   0  0  1  0  0  0  0  0  0  0  0  0
  -12.3413   -8.1868   15.5058 N   0  0  0  0  0  0  0  0  0  0  0  0
  -17.9056  -11.6655   14.4527 O   0  0  0  0  0  0  0  0  0  0  0  0
  -13.4163   -5.9440   16.1005 C   0  0  2  0  0  0  0  0  0  0  0  0
  -10.0922   -6.9214   14.5244 N   0  0  0  0  0  0  0  0  0  0  0  0
  -15.6327   -8.5703   15.4470 O   0  0  0  0  0  0  0  0  0  0  0  0
  -10.9259   -6.0994   15.2698 C   0  0  0  0  0  0  0  0  0  0  0  0
  -13.2906  -14.6670   14.7803 N   0  3  0  0  0  0  0  0  0  0  0  0
   -7.8393   -5.8449   14.7988 O   0  0  0  0  0  0  0  0  0  0  0  0
  -13.5288   -4.5457   15.6605 C   0  0  0  0  0  0  0  0  0  0  0  0
  -14.9086   -9.9135   13.7636 N   0  0  0  0  0  0  0  0  0  0  0  0
  -12.2949  -13.9929   12.8286 O   0  0  0  0  0  0  0  0  0  0  0  0
  -18.4858  -13.0354   17.0056 C   0  0  0  0  0  0  0  0  0  0  0  0
   -9.2394   -5.3354   12.7529 O   0  0  0  0  0  0  0  0  0  0  0  0
  -20.5671  -11.9323   17.8084 C   0  0  0  0  0  0  0  0  0  0  0  0
  -13.0360   -7.7637   13.3634 O   0  0  0  0  0  0  0  0  0  0  0  0
  -20.5039  -12.8424   15.4886 C   0  0  0  0  0  0  0  0  0  0  0  0
  -14.0180  -12.7701   13.7671 O   0  0  0  0  0  0  0  0  0  0  0  0
  -19.6703  -12.1585   16.5781 C   0  0  0  0  0  0  0  0  0  0  0  0
  -10.6486   -4.9384   15.5314 O   0  0  0  0  0  0  0  0  0  0  0  0
  -14.4368   -4.0545   14.8002 C   0  0  0  0  0  0  0  0  0  0  0  0
  -12.9697   -8.5276   14.3238 C   0  0  0  0  0  0  0  0  0  0  0  0
  -12.6084  -15.8785   14.9247 C   0  0  0  0  0  0  0  0  0  0  0  0
  -15.5114   -4.8697   14.1446 C   0  0  0  0  0  0  0  0  0  0  0  0
  -13.3767  -18.0309   17.7547 C   0  0  0  0  0  0  0  0  0  0  0  0
  -13.5481   -9.9456   14.2893 C   0  0  2  0  0  0  0  0  0  0  0  0
  -12.6899  -17.7359   16.5450 C   0  0  0  0  0  0  0  0  0  0  0  0
  -14.3182  -17.1467   18.3942 C   0  0  0  0  0  0  0  0  0  0  0  0
  -15.3927   -4.8653   12.6240 C   0  0  0  0  0  0  0  0  0  0  0  0
  -16.5380   -5.6382   11.9561 C   0  0  0  0  0  0  0  0  0  0  0  0
  -18.4328  -10.7387   15.0502 C   0  0  0  0  0  0  0  0  0  0  0  0
  -14.6529  -15.8855   17.8689 C   0  0  0  0  0  0  0  0  0  0  0  0
  -16.4659   -7.1508   12.2017 C   0  0  0  0  0  0  0  0  0  0  0  0
   -8.0535   -7.6190   12.8726 C   0  0  0  0  0  0  0  0  0  0  0  0
  -13.0579  -16.4850   16.0668 C   0  0  0  0  0  0  0  0  0  0  0  0
  -17.4818   -7.6125   13.2542 C   0  0  0  0  0  0  0  0  0  0  0  0
  -13.9875  -15.6074   16.6855 C   0  0  0  0  0  0  0  0  0  0  0  0
  -12.7739  -10.7817   13.2662 C   0  0  0  0  0  0  0  0  0  0  0  0
  -17.2599   -9.0575   13.7167 C   0  0  1  0  0  0  0  0  0  0  0  0
   -6.6283   -7.3872   12.4757 C   0  0  0  0  0  0  0  0  0  0  0  0
  -13.8331  -11.7551   12.7626 C   0  0  2  0  0  0  0  0  0  0  0  0
  -14.0980  -14.4858   15.9063 C   0  0  0  0  0  0  0  0  0  0  0  0
   -6.9582   -8.3442   13.5956 C   0  0  0  0  0  0  0  0  0  0  0  0
  -15.8802   -9.1711   14.3969 C   0  0  0  0  0  0  0  0  0  0  0  0
  -15.0916  -10.8900   12.6962 C   0  0  0  0  0  0  0  0  0  0  0  0
  -13.1426  -13.8014   13.6843 C   0  0  0  0  0  0  0  0  0  0  0  0
  -11.9213   -5.5322   17.6986 H   0  0  0  0  0  0  0  0  0  0  0  0
  -12.9040   -7.0426   17.9508 H   0  0  0  0  0  0  0  0  0  0  0  0
  -18.6564   -8.7382   15.3232 H   0  0  0  0  0  0  0  0  0  0  0  0
  -12.3011   -8.8518   16.2699 H   0  0  0  0  0  0  0  0  0  0  0  0
  -14.3593   -6.4828   16.0875 H   0  0  0  0  0  0  0  0  0  0  0  0
  -10.3808   -7.8499   14.2620 H   0  0  0  0  0  0  0  0  0  0  0  0
  -12.8031   -3.8332   16.0555 H   0  0  0  0  0  0  0  0  0  0  0  0
  -18.8294  -14.0111   17.3670 H   0  0  0  0  0  0  0  0  0  0  0  0
  -17.9071  -12.5538   17.8011 H   0  0  0  0  0  0  0  0  0  0  0  0
  -17.7912  -13.2266   16.1845 H   0  0  0  0  0  0  0  0  0  0  0  0
  -20.9498  -12.8795   18.2062 H   0  0  0  0  0  0  0  0  0  0  0  0
  -21.4233  -11.2937   17.5630 H   0  0  0  0  0  0  0  0  0  0  0  0
  -20.0186  -11.4233   18.6096 H   0  0  0  0  0  0  0  0  0  0  0  0
  -20.8705  -13.8191   15.8191 H   0  0  0  0  0  0  0  0  0  0  0  0
  -19.9254  -12.9996   14.5740 H   0  0  0  0  0  0  0  0  0  0  0  0
  -21.3616  -12.2199   15.2105 H   0  0  0  0  0  0  0  0  0  0  0  0
  -14.4109   -2.9933   14.5579 H   0  0  0  0  0  0  0  0  0  0  0  0
  -11.9002  -16.1875   14.1661 H   0  0  0  0  0  0  0  0  0  0  0  0
  -16.4865   -4.4779   14.4547 H   0  0  0  0  0  0  0  0  0  0  0  0
  -15.4716   -5.9048   14.4848 H   0  0  0  0  0  0  0  0  0  0  0  0
  -13.1862  -18.9931   18.2272 H   0  0  0  0  0  0  0  0  0  0  0  0
  -13.5608  -10.4133   15.2806 H   0  0  0  0  0  0  0  0  0  0  0  0
  -11.9923  -18.4157   16.0767 H   0  0  0  0  0  0  0  0  0  0  0  0
  -14.7908  -17.4686   19.3192 H   0  0  0  0  0  0  0  0  0  0  0  0
  -14.4299   -5.3002   12.3240 H   0  0  0  0  0  0  0  0  0  0  0  0
  -15.3997   -3.8325   12.2565 H   0  0  0  0  0  0  0  0  0  0  0  0
  -16.4779   -5.4577   10.8772 H   0  0  0  0  0  0  0  0  0  0  0  0
  -17.5012   -5.2350   12.2911 H   0  0  0  0  0  0  0  0  0  0  0  0
  -15.4474   -7.4256   12.4881 H   0  0  0  0  0  0  0  0  0  0  0  0
  -16.6705   -7.6811   11.2640 H   0  0  0  0  0  0  0  0  0  0  0  0
   -8.7097   -8.1553   12.2077 H   0  0  0  0  0  0  0  0  0  0  0  0
  -18.4920   -7.5204   12.8354 H   0  0  0  0  0  0  0  0  0  0  0  0
  -17.4533   -6.9449   14.1231 H   0  0  0  0  0  0  0  0  0  0  0  0
  -11.9121  -11.2706   13.7297 H   0  0  0  0  0  0  0  0  0  0  0  0
  -12.4118  -10.1637   12.4356 H   0  0  0  0  0  0  0  0  0  0  0  0
  -17.3448   -9.7315   12.8611 H   0  0  0  0  0  0  0  0  0  0  0  0
   -6.1720   -6.4337   12.7289 H   0  0  0  0  0  0  0  0  0  0  0  0
   -6.3250   -7.7790   11.5151 H   0  0  0  0  0  0  0  0  0  0  0  0
  -13.6043  -12.1999   11.7882 H   0  0  0  0  0  0  0  0  0  0  0  0
  -14.6829  -13.5820   16.0302 H   0  0  0  0  0  0  0  0  0  0  0  0
   -6.8611   -9.4060   13.4147 H   0  0  0  0  0  0  0  0  0  0  0  0
   -6.6968   -8.0478   14.6075 H   0  0  0  0  0  0  0  0  0  0  0  0
  -15.1554  -10.3372   11.7534 H   0  0  0  0  0  0  0  0  0  0  0  0
  -16.0004  -11.4759   12.8462 H   0  0  0  0  0  0  0  0  0  0  0  0
  1  6  1  0  0  0  0
  1  9  1  0  0  0  0
  1 52  1  0  0  0  0
  1 53  1  0  0  0  0
  2 37  1  0  0  0  0
  3 36  1  0  0  0  0
  3 44  1  0  0  0  0
  3 54  1  0  0  0  0
  4 24  1  0  0  0  0
  4 36  1  0  0  0  0
  5 10  1  0  0  0  0
  5 14  2  0  0  0  0
  5 19  2  0  0  0  0
  5 39  1  0  0  0  0
  6  7  1  0  0  0  0
  6  9  1  0  0  0  0
  6 12  1  6  0  0  0
  7 27  1  0  0  0  0
  7 55  1  0  0  0  0
  8 36  2  0  0  0  0
  9 15  1  0  0  0  0
  9 56  1  6  0  0  0
 10 12  1  0  0  0  0
 10 57  1  0  0  0  0
 11 49  2  0  0  0  0
 12 25  2  0  0  0  0
 13 28  1  0  0  0  0
 13 47  1  0  0  0  0
 13 51  1  0  0  0  0
 15 26  2  0  0  0  0
 15 58  1  0  0  0  0
 16 31  1  0  0  0  0
 16 49  1  0  0  0  0
 16 50  1  0  0  0  0
 17 51  2  0  0  0  0
 18 24  1  0  0  0  0
 18 59  1  0  0  0  0
 18 60  1  0  0  0  0
 18 61  1  0  0  0  0
 20 24  1  0  0  0  0
 20 62  1  0  0  0  0
 20 63  1  0  0  0  0
 20 64  1  0  0  0  0
 21 27  2  0  0  0  0
 22 24  1  0  0  0  0
 22 65  1  0  0  0  0
 22 66  1  0  0  0  0
 22 67  1  0  0  0  0
 23 46  1  0  0  0  0
 23 51  1  0  0  0  0
 26 29  1  0  0  0  0
 26 68  1  0  0  0  0
 27 31  1  0  0  0  0
 28 40  2  0  0  0  0
 28 69  1  0  0  0  0
 29 34  1  0  0  0  0
 29 70  1  0  0  0  0
 29 71  1  0  0  0  0
 30 32  2  0  0  0  0
 30 33  1  0  0  0  0
 30 72  1  0  0  0  0
 31 43  1  0  0  0  0
 31 73  1  1  0  0  0
 32 40  1  0  0  0  0
 32 74  1  0  0  0  0
 33 37  2  0  0  0  0
 33 75  1  0  0  0  0
 34 35  1  0  0  0  0
 34 76  1  0  0  0  0
 34 77  1  0  0  0  0
 35 38  1  0  0  0  0
 35 78  1  0  0  0  0
 35 79  1  0  0  0  0
 37 42  1  0  0  0  0
 38 41  1  0  0  0  0
 38 80  1  0  0  0  0
 38 81  1  0  0  0  0
 39 45  1  0  0  0  0
 39 48  1  0  0  0  0
 39 82  1  0  0  0  0
 40 42  1  0  0  0  0
 41 44  1  0  0  0  0
 41 83  1  0  0  0  0
 41 84  1  0  0  0  0
 42 47  2  0  0  0  0
 43 46  1  0  0  0  0
 43 85  1  0  0  0  0
 43 86  1  0  0  0  0
 44 49  1  0  0  0  0
 44 87  1  6  0  0  0
 45 48  1  0  0  0  0
 45 88  1  0  0  0  0
 45 89  1  0  0  0  0
 46 50  1  0  0  0  0
 46 90  1  6  0  0  0
 47 91  1  0  0  0  0
 48 92  1  0  0  0  0
 48 93  1  0  0  0  0
 50 94  1  0  0  0  0
 50 95  1  0  0  0  0
M  CHG  1  13   1
M  END
$$$$
