TT8
 OpenBabel04091915183D

 49 51  0  0  1  0  0  0  0  0999 V2000
   41.9823   53.5615    0.9528 C   0  0  0  0  0  0  0  0  0  0  0  0
   41.8109   51.1184    1.6390 N   0  3  0  0  0  0  0  0  0  0  0  0
   42.7082   52.9911    0.0822 O   0  0  0  0  0  0  0  0  0  0  0  0
   47.4643   43.5300    9.5960 C   0  0  0  0  0  0  0  0  0  0  0  0
   43.8731   43.6913    8.6151 N   0  0  0  0  0  0  0  0  0  0  0  0
   42.9224   44.5843    8.2084 C   0  0  0  0  0  0  0  0  0  0  0  0
   43.0496   45.9035    8.0145 N   0  0  0  0  0  0  0  0  0  0  0  0
   44.3189   46.3268    8.2732 C   0  0  0  0  0  0  0  0  0  0  0  0
   45.3794   45.5346    8.6997 C   0  0  0  0  0  0  0  0  0  0  0  0
   45.1409   44.1517    8.8749 C   0  0  0  0  0  0  0  0  0  0  0  0
   46.0920   43.2327    9.2643 N   0  0  0  0  0  0  0  0  0  0  0  0
   46.5199   46.3087    8.8682 N   0  0  0  0  0  0  0  0  0  0  0  0
   46.1571   47.5395    8.5402 C   0  0  0  0  0  0  0  0  0  0  0  0
   44.8403   47.6003    8.1752 N   0  3  0  0  0  0  0  0  0  0  0  0
   41.5420   52.5533    2.0682 C   0  0  1  0  0  0  0  0  0  0  0  0
   42.2105   52.8084    3.4344 C   0  0  0  0  0  0  0  0  0  0  0  0
   44.5288   53.0353    5.0274 S   0  0  0  0  0  0  0  0  0  0  0  0
   43.7353   52.6626    3.4195 C   0  0  0  0  0  0  0  0  0  0  0  0
   44.1017   48.7895    7.7875 C   0  0  1  0  0  0  0  0  0  0  0  0
   44.2877   50.0064    8.6917 C   0  0  2  0  0  0  0  0  0  0  0  0
   43.4830   49.9363    9.8588 O   0  0  0  0  0  0  0  0  0  0  0  0
   43.9437   51.1863    7.7793 C   0  0  2  0  0  0  0  0  0  0  0  0
   42.6319   51.7034    8.0065 O   0  0  0  0  0  0  0  0  0  0  0  0
   44.0869   50.6238    6.3584 C   0  0  2  0  0  0  0  0  0  0  0  0
   44.5067   49.2405    6.4803 O   0  0  0  0  0  0  0  0  0  0  0  0
   45.1230   51.3774    5.5294 C   0  0  0  0  0  0  0  0  0  0  0  0
   41.5209   54.7197    1.0503 O   0  0  0  0  0  0  0  0  0  0  0  0
   41.5397   50.4206    2.3277 H   0  0  0  0  0  0  0  0  0  0  0  0
   41.3326   50.9747    0.7359 H   0  0  0  0  0  0  0  0  0  0  0  0
   47.9774   42.6009    9.8910 H   0  0  0  0  0  0  0  0  0  0  0  0
   47.5547   44.2220   10.4376 H   0  0  0  0  0  0  0  0  0  0  0  0
   48.0062   43.9311    8.7363 H   0  0  0  0  0  0  0  0  0  0  0  0
   41.9161   44.1492    8.0121 H   0  0  0  0  0  0  0  0  0  0  0  0
   45.7476   42.2775    9.3579 H   0  0  0  0  0  0  0  0  0  0  0  0
   46.8380   48.3865    8.5845 H   0  0  0  0  0  0  0  0  0  0  0  0
   40.4531   52.6133    2.1957 H   0  0  0  0  0  0  0  0  0  0  0  0
   41.7907   52.1124    4.1738 H   0  0  0  0  0  0  0  0  0  0  0  0
   41.9483   53.8232    3.7601 H   0  0  0  0  0  0  0  0  0  0  0  0
   44.1581   53.3633    2.6963 H   0  0  0  0  0  0  0  0  0  0  0  0
   44.0085   51.6482    3.1231 H   0  0  0  0  0  0  0  0  0  0  0  0
   43.0379   48.5283    7.7370 H   0  0  0  0  0  0  0  0  0  0  0  0
   45.3351   50.1061    8.9988 H   0  0  0  0  0  0  0  0  0  0  0  0
   42.5491   49.9210    9.5871 H   0  0  0  0  0  0  0  0  0  0  0  0
   44.6403   52.0145    7.9500 H   0  0  0  0  0  0  0  0  0  0  0  0
   41.9600   51.0268    7.8417 H   0  0  0  0  0  0  0  0  0  0  0  0
   43.1227   50.6305    5.8328 H   0  0  0  0  0  0  0  0  0  0  0  0
   46.0351   51.4979    6.1296 H   0  0  0  0  0  0  0  0  0  0  0  0
   45.4050   50.7884    4.6518 H   0  0  0  0  0  0  0  0  0  0  0  0
   42.8057   51.0713    1.3714 H   0  0  0  0  0  0  0  0  0  0  0  0
  1  3  2  0  0  0  0
  1 15  1  0  0  0  0
  1 27  1  0  0  0  0
  2 15  1  0  0  0  0
  2 28  1  0  0  0  0
  2 29  1  0  0  0  0
  2 49  1  0  0  0  0
  4 11  1  0  0  0  0
  4 30  1  0  0  0  0
  4 31  1  0  0  0  0
  4 32  1  0  0  0  0
  5  6  2  0  0  0  0
  5 10  1  0  0  0  0
  6  7  1  0  0  0  0
  6 33  1  0  0  0  0
  7  8  2  0  0  0  0
  8  9  1  0  0  0  0
  8 14  1  0  0  0  0
  9 10  2  0  0  0  0
  9 12  1  0  0  0  0
 10 11  1  0  0  0  0
 11 34  1  0  0  0  0
 12 13  1  0  0  0  0
 13 14  2  0  0  0  0
 13 35  1  0  0  0  0
 14 19  1  0  0  0  0
 15 16  1  0  0  0  0
 15 36  1  1  0  0  0
 16 18  1  0  0  0  0
 16 37  1  0  0  0  0
 16 38  1  0  0  0  0
 17 18  1  0  0  0  0
 17 26  1  0  0  0  0
 18 39  1  0  0  0  0
 18 40  1  0  0  0  0
 19 20  1  0  0  0  0
 19 25  1  0  0  0  0
 19 41  1  6  0  0  0
 20 21  1  0  0  0  0
 20 22  1  0  0  0  0
 20 42  1  1  0  0  0
 21 43  1  0  0  0  0
 22 23  1  0  0  0  0
 22 24  1  0  0  0  0
 22 44  1  1  0  0  0
 23 45  1  0  0  0  0
 24 25  1  0  0  0  0
 24 26  1  0  0  0  0
 24 46  1  6  0  0  0
 26 47  1  0  0  0  0
 26 48  1  0  0  0  0
M  CHG  2   2   1  14   1
M  END
$$$$
