TUO
 OpenBabel04091910573D

 37 39  0  0  1  0  0  0  0  0999 V2000
   -2.3722    1.6248   11.3019 C   0  0  0  0  0  0  0  0  0  0  0  0
   -1.9813    0.4273   10.7090 C   0  0  0  0  0  0  0  0  0  0  0  0
   -2.8110   -0.6938   10.7624 C   0  0  0  0  0  0  0  0  0  0  0  0
   -4.0688   -0.6182   11.3577 C   0  0  0  0  0  0  0  0  0  0  0  0
   -4.4778    0.5871   11.8733 C   0  0  0  0  0  0  0  0  0  0  0  0
   -3.6453    1.7212   11.8721 C   0  0  0  0  0  0  0  0  0  0  0  0
   -4.1474    2.9817   12.4196 C   0  0  1  0  0  0  0  0  0  0  0  0
   -4.7579    2.9871   13.6861 C   0  0  1  0  0  0  0  0  0  0  0  0
   -5.0223    1.9831   14.6406 C   0  0  0  0  0  0  0  0  0  0  0  0
   -5.6131    2.3336   15.8528 C   0  0  2  0  0  0  0  0  0  0  0  0
   -6.1050    1.1175   17.0679 S   0  0  0  0  0  0  0  0  0  0  0  0
   -5.2518    1.0484   18.2384 O   0  0  0  0  0  0  0  0  0  0  0  0
   -7.5472    1.0616   17.0999 O   0  0  0  0  0  0  0  0  0  0  0  0
   -5.7047   -0.3098   16.3140 N   0  0  0  0  0  0  0  0  0  0  0  0
   -5.9850    3.6531   16.0696 C   0  0  0  0  0  0  0  0  0  0  0  0
   -5.7152    4.6560   15.1263 C   0  0  0  0  0  0  0  0  0  0  0  0
   -5.1027    4.2790   13.9715 C   0  0  1  0  0  0  0  0  0  0  0  0
   -4.7082    5.0870   12.8800 N   0  3  0  0  0  0  0  0  0  0  0  0
   -4.1127    4.2685   11.9097 C   0  0  1  0  0  0  0  0  0  0  0  0
   -3.6103    4.9395   10.6937 C   0  0  0  0  0  0  0  0  0  0  0  0
   -3.2050    6.0583   10.6965 O   0  0  0  0  0  0  0  0  0  0  0  0
   -3.6916    4.2111    9.5114 N   0  0  0  0  0  0  0  0  0  0  0  0
   -4.2996    2.9774    9.4039 N   0  0  0  0  0  0  0  0  0  0  0  0
   -1.7450    2.5105   11.2276 H   0  0  0  0  0  0  0  0  0  0  0  0
   -1.0138    0.3615   10.2242 H   0  0  0  0  0  0  0  0  0  0  0  0
   -2.4749   -1.6381   10.3495 H   0  0  0  0  0  0  0  0  0  0  0  0
   -4.7127   -1.4863   11.4076 H   0  0  0  0  0  0  0  0  0  0  0  0
   -5.4797    0.6563   12.3394 H   0  0  0  0  0  0  0  0  0  0  0  0
   -4.7386    0.9746   14.3695 H   0  0  0  0  0  0  0  0  0  0  0  0
   -5.6614   -1.0868   16.9506 H   0  0  0  0  0  0  0  0  0  0  0  0
   -5.2265   -0.2118   15.4584 H   0  0  0  0  0  0  0  0  0  0  0  0
   -6.4907    3.9215   16.9707 H   0  0  0  0  0  0  0  0  0  0  0  0
   -5.9811    5.6879   15.3230 H   0  0  0  0  0  0  0  0  0  0  0  0
   -4.8301    6.0714   12.8089 H   0  0  0  0  0  0  0  0  0  0  0  0
   -3.3516    4.6683    8.6762 H   0  0  0  0  0  0  0  0  0  0  0  0
   -4.1594    2.5951    8.4843 H   0  0  0  0  0  0  0  0  0  0  0  0
   -3.7109    2.3658    9.9615 H   0  0  0  0  0  0  0  0  0  0  0  0
  1  2  2  0  0  0  0
  1  6  1  0  0  0  0
  1 24  1  0  0  0  0
  2  3  1  0  0  0  0
  2 25  1  0  0  0  0
  3  4  2  0  0  0  0
  3 26  1  0  0  0  0
  4  5  1  0  0  0  0
  4 27  1  0  0  0  0
  5  6  2  0  0  0  0
  5 28  1  0  0  0  0
  7  6  1  1  0  0  0
  7  8  1  0  0  0  0
  7 19  1  0  0  0  0
  8  9  1  1  0  0  0
  8 17  1  0  0  0  0
  9 10  1  0  0  0  0
  9 29  1  0  0  0  0
 10 11  1  6  0  0  0
 10 15  1  0  0  0  0
 11 12  2  0  0  0  0
 11 13  2  0  0  0  0
 11 14  1  0  0  0  0
 14 30  1  0  0  0  0
 14 31  1  0  0  0  0
 15 16  1  0  0  0  0
 15 32  1  0  0  0  0
 16 33  1  0  0  0  0
 17 16  1  1  0  0  0
 17 18  1  0  0  0  0
 18 19  1  0  0  0  0
 18 34  1  0  0  0  0
 19 20  1  1  0  0  0
 20 21  2  0  0  0  0
 20 22  1  0  0  0  0
 22 23  1  0  0  0  0
 22 35  1  0  0  0  0
 23 36  1  0  0  0  0
 23 37  1  0  0  0  0
M  CHG  1  18   1
M  END
$$$$
