TXQ
 OpenBabel04091912323D

 25 27  0  0  0  0  0  0  0  0999 V2000
   21.3985    9.2453   18.5328 O   0  0  0  0  0  0  0  0  0  0  0  0
   22.1231    8.2461   18.5196 C   0  0  0  0  0  0  0  0  0  0  0  0
   22.3663    7.3398   19.7099 C   0  0  0  0  0  0  0  0  0  0  0  0
   21.7238    7.6260   20.9774 C   0  0  0  0  0  0  0  0  0  0  0  0
   20.9378    8.5976   21.2566 O   0  0  0  0  0  0  0  0  0  0  0  0
   22.0319    6.7023   21.9889 C   0  0  0  0  0  0  0  0  0  0  0  0
   22.8682    5.6010   21.8235 C   0  0  0  0  0  0  0  0  0  0  0  0
   23.5102    5.2830   20.6259 C   0  0  0  0  0  0  0  0  0  0  0  0
   24.2480    4.2336   20.6213 O   0  0  0  0  0  0  0  0  0  0  0  0
   23.2325    6.2062   19.5373 C   0  0  0  0  0  0  0  0  0  0  0  0
   23.8735    5.9688   18.1826 C   0  0  0  0  0  0  0  0  0  0  0  0
   24.6299    5.0110   18.0117 O   0  0  0  0  0  0  0  0  0  0  0  0
   22.7724    7.9714   17.2163 C   0  0  0  0  0  0  0  0  0  0  0  0
   23.6236    6.8732   17.0151 C   0  0  0  0  0  0  0  0  0  0  0  0
   22.5057    8.8678   16.1522 C   0  0  0  0  0  0  0  0  0  0  0  0
   23.0685    8.6819   14.9020 C   0  0  0  0  0  0  0  0  0  0  0  0
   23.9019    7.5919   14.7216 C   0  0  0  0  0  0  0  0  0  0  0  0
   24.4803    7.3755   13.4836 O   0  0  0  0  0  0  0  0  0  0  0  0
   24.2302    6.6442   15.7165 C   0  0  0  0  0  0  0  0  0  0  0  0
   25.0238    5.6948   15.3548 O   0  0  0  0  0  0  0  0  0  0  0  0
   21.5846    6.8439   22.9681 H   0  0  0  0  0  0  0  0  0  0  0  0
   23.0336    4.9416   22.6753 H   0  0  0  0  0  0  0  0  0  0  0  0
   21.8471    9.7231   16.3071 H   0  0  0  0  0  0  0  0  0  0  0  0
   22.8778    9.3538   14.0788 H   0  0  0  0  0  0  0  0  0  0  0  0
   24.9765    6.5475   13.7368 H   0  0  0  0  0  0  0  0  0  0  0  0
  1  2  2  0  0  0  0
  2  3  1  0  0  0  0
  2 13  1  0  0  0  0
  3  4  2  0  0  0  0
  3 10  1  0  0  0  0
  4  5  1  0  0  0  0
  4  6  1  0  0  0  0
  6  7  2  0  0  0  0
  6 21  1  0  0  0  0
  7  8  1  0  0  0  0
  7 22  1  0  0  0  0
  8  9  1  0  0  0  0
  8 10  2  0  0  0  0
 10 11  1  0  0  0  0
 11 12  2  0  0  0  0
 11 14  1  0  0  0  0
 13 14  2  0  0  0  0
 13 15  1  0  0  0  0
 14 19  1  0  0  0  0
 15 16  2  0  0  0  0
 15 23  1  0  0  0  0
 16 17  1  0  0  0  0
 16 24  1  0  0  0  0
 17 18  1  0  0  0  0
 17 19  2  0  0  0  0
 18 25  1  0  0  0  0
 19 20  1  0  0  0  0
M  END
$$$$
