TXS
 OpenBabel04091911253D

 43 45  0  0  1  0  0  0  0  0999 V2000
   42.0208    0.3983   15.1192 C   0  0  0  0  0  0  0  0  0  0  0  0
   42.9008   -0.4231   16.0277 C   0  0  0  0  0  0  0  0  0  0  0  0
   42.6863   -1.8813   15.6517 C   0  0  0  0  0  0  0  0  0  0  0  0
   41.8520   -1.8680   14.4000 C   0  0  0  0  0  0  0  0  0  0  0  0
   41.0803   -0.5936   14.5273 N   0  3  0  0  0  0  0  0  0  0  0  0
   40.5262   -0.1282   13.1963 C   0  0  0  0  0  0  0  0  0  0  0  0
   39.0697   -0.4490   13.1627 C   0  0  2  0  0  0  0  0  0  0  0  0
   38.6355   -1.4470   12.2264 O   0  0  0  0  0  0  0  0  0  0  0  0
   38.1366    0.7525   12.9219 C   0  0  2  0  0  0  0  0  0  0  0  0
   37.7195    1.2101   14.2118 O   0  0  0  0  0  0  0  0  0  0  0  0
   36.9491    0.1319   12.1530 C   0  0  0  0  0  0  0  0  0  0  0  0
   37.2033   -1.3157   12.5169 C   0  0  1  0  0  0  0  0  0  0  0  0
   36.4012   -2.4976   12.3155 N   0  3  0  0  0  0  0  0  0  0  0  0
   36.7192   -3.5970   13.1199 C   0  0  0  0  0  0  0  0  0  0  0  0
   36.0247   -4.7214   13.1419 C   0  0  0  0  0  0  0  0  0  0  0  0
   36.4284   -5.8880   13.9886 C   0  0  0  0  0  0  0  0  0  0  0  0
   34.8293   -4.8290   12.2958 C   0  0  0  0  0  0  0  0  0  0  0  0
   34.1627   -5.8331   12.2716 O   0  0  0  0  0  0  0  0  0  0  0  0
   34.5125   -3.6772   11.5274 N   0  3  0  0  0  0  0  0  0  0  0  0
   35.2407   -2.5224   11.5160 C   0  0  0  0  0  0  0  0  0  0  0  0
   34.8838   -1.5710   10.8327 O   0  0  0  0  0  0  0  0  0  0  0  0
   42.5796    0.8295   14.2851 H   0  0  0  0  0  0  0  0  0  0  0  0
   41.4500    1.1725   15.6353 H   0  0  0  0  0  0  0  0  0  0  0  0
   42.6318   -0.2458   17.0738 H   0  0  0  0  0  0  0  0  0  0  0  0
   43.9458   -0.1332   15.8920 H   0  0  0  0  0  0  0  0  0  0  0  0
   42.1559   -2.4130   16.4507 H   0  0  0  0  0  0  0  0  0  0  0  0
   43.6316   -2.3927   15.4672 H   0  0  0  0  0  0  0  0  0  0  0  0
   41.1667   -2.7123   14.3094 H   0  0  0  0  0  0  0  0  0  0  0  0
   42.4685   -1.7748   13.5021 H   0  0  0  0  0  0  0  0  0  0  0  0
   41.0854   -0.6420   12.4232 H   0  0  0  0  0  0  0  0  0  0  0  0
   40.6994    0.9427   13.1483 H   0  0  0  0  0  0  0  0  0  0  0  0
   38.8418   -0.8973   14.1463 H   0  0  0  0  0  0  0  0  0  0  0  0
   38.6343    1.5655   12.3862 H   0  0  0  0  0  0  0  0  0  0  0  0
   37.1095    1.9643   14.0905 H   0  0  0  0  0  0  0  0  0  0  0  0
   37.0529    0.3166   11.0777 H   0  0  0  0  0  0  0  0  0  0  0  0
   35.9773    0.4833   12.5092 H   0  0  0  0  0  0  0  0  0  0  0  0
   37.1778   -1.3099   13.6153 H   0  0  0  0  0  0  0  0  0  0  0  0
   37.6071   -3.4989   13.7651 H   0  0  0  0  0  0  0  0  0  0  0  0
   37.3388   -5.6305   14.5474 H   0  0  0  0  0  0  0  0  0  0  0  0
   36.6502   -6.7635   13.3762 H   0  0  0  0  0  0  0  0  0  0  0  0
   35.6529   -6.1429   14.7119 H   0  0  0  0  0  0  0  0  0  0  0  0
   33.6796   -3.7744   10.9517 H   0  0  0  0  0  0  0  0  0  0  0  0
   40.3006   -0.7449   15.2123 H   0  0  0  0  0  0  0  0  0  0  0  0
  1  2  1  0  0  0  0
  1  5  1  0  0  0  0
  1 22  1  0  0  0  0
  1 23  1  0  0  0  0
  2  3  1  0  0  0  0
  2 24  1  0  0  0  0
  2 25  1  0  0  0  0
  3  4  1  0  0  0  0
  3 26  1  0  0  0  0
  3 27  1  0  0  0  0
  4  5  1  0  0  0  0
  4 28  1  0  0  0  0
  4 29  1  0  0  0  0
  5  6  1  0  0  0  0
  5 43  1  0  0  0  0
  6  7  1  0  0  0  0
  6 30  1  0  0  0  0
  6 31  1  0  0  0  0
  7  8  1  0  0  0  0
  7  9  1  0  0  0  0
  7 32  1  1  0  0  0
  8 12  1  0  0  0  0
  9 10  1  0  0  0  0
  9 11  1  0  0  0  0
  9 33  1  6  0  0  0
 10 34  1  0  0  0  0
 11 12  1  0  0  0  0
 11 35  1  0  0  0  0
 11 36  1  0  0  0  0
 12 13  1  0  0  0  0
 12 37  1  1  0  0  0
 13 14  1  0  0  0  0
 13 20  1  0  0  0  0
 14 15  2  0  0  0  0
 14 38  1  0  0  0  0
 15 16  1  0  0  0  0
 15 17  1  0  0  0  0
 16 39  1  0  0  0  0
 16 40  1  0  0  0  0
 16 41  1  0  0  0  0
 17 18  2  0  0  0  0
 17 19  1  0  0  0  0
 19 20  1  0  0  0  0
 19 42  1  0  0  0  0
 20 21  2  0  0  0  0
M  CHG  3   5   1  13   1  19   1
M  END
$$$$
