U1S
 OpenBabel04091911233D

 44 46  0  0  1  0  0  0  0  0999 V2000
   34.9441   -4.6727   12.4467 C   0  0  0  0  0  0  0  0  0  0  0  0
   36.1791   -4.5218   13.2189 C   0  0  0  0  0  0  0  0  0  0  0  0
   36.9358   -3.4372   13.0536 C   0  0  0  0  0  0  0  0  0  0  0  0
   36.6006   -2.4009   12.1939 N   0  3  0  0  0  0  0  0  0  0  0  0
   34.6532   -3.6619   11.5966 N   0  3  0  0  0  0  0  0  0  0  0  0
   43.6553   -1.7280   15.6700 C   0  0  0  0  0  0  0  0  0  0  0  0
   43.0715   -0.3345   15.4538 C   0  0  0  0  0  0  0  0  0  0  0  0
   42.3419   -0.2079   14.1242 C   0  0  0  0  0  0  0  0  0  0  0  0
   43.1238   -2.7364   14.6565 C   0  0  0  0  0  0  0  0  0  0  0  0
   41.6223   -2.6187   14.4910 C   0  0  0  0  0  0  0  0  0  0  0  0
   41.2393   -1.2323   14.0320 N   0  3  0  0  0  0  0  0  0  0  0  0
   40.0035   -0.7426   14.7402 C   0  0  0  0  0  0  0  0  0  0  0  0
   38.7343   -0.8402   13.9064 C   0  0  2  0  0  0  0  0  0  0  0  0
   38.8178   -1.4676   12.6100 O   0  0  0  0  0  0  0  0  0  0  0  0
   38.1718    0.5120   13.5783 C   0  0  2  0  0  0  0  0  0  0  0  0
   37.7742    1.2274   14.7315 O   0  0  0  0  0  0  0  0  0  0  0  0
   36.9995    0.1133   12.6990 C   0  0  1  0  0  0  0  0  0  0  0  0
   36.8220    1.1893   11.7804 O   0  0  0  0  0  0  0  0  0  0  0  0
   37.4836   -1.2069   12.0113 C   0  0  2  0  0  0  0  0  0  0  0  0
   34.2478   -5.6681   12.5819 O   0  0  0  0  0  0  0  0  0  0  0  0
   35.4212   -2.4970   11.4255 C   0  0  0  0  0  0  0  0  0  0  0  0
   35.0675   -1.6256   10.6355 O   0  0  0  0  0  0  0  0  0  0  0  0
   36.4363   -5.3348   13.8859 H   0  0  0  0  0  0  0  0  0  0  0  0
   37.8594   -3.3697   13.6087 H   0  0  0  0  0  0  0  0  0  0  0  0
   33.8128   -3.7254   11.0501 H   0  0  0  0  0  0  0  0  0  0  0  0
   43.4207   -2.0655   16.6882 H   0  0  0  0  0  0  0  0  0  0  0  0
   44.7489   -1.6852   15.5993 H   0  0  0  0  0  0  0  0  0  0  0  0
   43.8781    0.4065   15.4817 H   0  0  0  0  0  0  0  0  0  0  0  0
   42.3943   -0.0945   16.2837 H   0  0  0  0  0  0  0  0  0  0  0  0
   43.0141   -0.3777   13.2801 H   0  0  0  0  0  0  0  0  0  0  0  0
   41.8916    0.7829   14.0127 H   0  0  0  0  0  0  0  0  0  0  0  0
   43.3688   -3.7504   14.9817 H   0  0  0  0  0  0  0  0  0  0  0  0
   43.6118   -2.5710   13.6899 H   0  0  0  0  0  0  0  0  0  0  0  0
   41.1404   -2.8064   15.4561 H   0  0  0  0  0  0  0  0  0  0  0  0
   41.2330   -3.3301   13.7592 H   0  0  0  0  0  0  0  0  0  0  0  0
   40.1828    0.2842   15.0693 H   0  0  0  0  0  0  0  0  0  0  0  0
   39.8893   -1.3246   15.6603 H   0  0  0  0  0  0  0  0  0  0  0  0
   38.0201   -1.3997   14.5178 H   0  0  0  0  0  0  0  0  0  0  0  0
   38.9071    1.1196   13.0281 H   0  0  0  0  0  0  0  0  0  0  0  0
   37.3976    2.0815   14.4438 H   0  0  0  0  0  0  0  0  0  0  0  0
   36.0820   -0.0282   13.2809 H   0  0  0  0  0  0  0  0  0  0  0  0
   36.6775    2.0107   12.2826 H   0  0  0  0  0  0  0  0  0  0  0  0
   37.5925   -1.0180   10.9343 H   0  0  0  0  0  0  0  0  0  0  0  0
   40.9749   -1.3143   13.0270 H   0  0  0  0  0  0  0  0  0  0  0  0
  1  2  1  0  0  0  0
  1  5  1  0  0  0  0
  1 20  2  0  0  0  0
  2  3  2  0  0  0  0
  2 23  1  0  0  0  0
  3  4  1  0  0  0  0
  3 24  1  0  0  0  0
  4 19  1  0  0  0  0
  4 21  1  0  0  0  0
  5 21  1  0  0  0  0
  5 25  1  0  0  0  0
  6  7  1  0  0  0  0
  6  9  1  0  0  0  0
  6 26  1  0  0  0  0
  6 27  1  0  0  0  0
  7  8  1  0  0  0  0
  7 28  1  0  0  0  0
  7 29  1  0  0  0  0
  8 11  1  0  0  0  0
  8 30  1  0  0  0  0
  8 31  1  0  0  0  0
  9 10  1  0  0  0  0
  9 32  1  0  0  0  0
  9 33  1  0  0  0  0
 10 11  1  0  0  0  0
 10 34  1  0  0  0  0
 10 35  1  0  0  0  0
 11 12  1  0  0  0  0
 11 44  1  0  0  0  0
 12 13  1  0  0  0  0
 12 36  1  0  0  0  0
 12 37  1  0  0  0  0
 13 14  1  0  0  0  0
 13 15  1  0  0  0  0
 13 38  1  1  0  0  0
 14 19  1  0  0  0  0
 15 16  1  0  0  0  0
 15 17  1  0  0  0  0
 15 39  1  6  0  0  0
 16 40  1  0  0  0  0
 17 18  1  0  0  0  0
 17 19  1  0  0  0  0
 17 41  1  1  0  0  0
 18 42  1  0  0  0  0
 19 43  1  6  0  0  0
 21 22  2  0  0  0  0
M  CHG  3   4   1   5   1  11   1
M  END
$$$$
