U2S
 OpenBabel04091911233D

 42 44  0  0  1  0  0  0  0  0999 V2000
   34.8992   -4.6140   12.3348 C   0  0  0  0  0  0  0  0  0  0  0  0
   36.1384   -4.4743   13.1025 C   0  0  0  0  0  0  0  0  0  0  0  0
   36.8927   -3.3926   12.9339 C   0  0  0  0  0  0  0  0  0  0  0  0
   36.5405   -2.3453   12.0939 N   0  3  0  0  0  0  0  0  0  0  0  0
   34.6284   -3.5694   11.4806 N   0  3  0  0  0  0  0  0  0  0  0  0
   43.7126   -1.8459   14.7611 O   0  0  0  0  0  0  0  0  0  0  0  0
   42.8053   -2.8991   15.1015 C   0  0  0  0  0  0  0  0  0  0  0  0
   41.4315   -2.3406   15.4549 C   0  0  0  0  0  0  0  0  0  0  0  0
   43.2711   -1.1407   13.5953 C   0  0  0  0  0  0  0  0  0  0  0  0
   41.9540   -0.4376   13.8819 C   0  0  0  0  0  0  0  0  0  0  0  0
   40.9034   -1.4413   14.3431 N   0  3  0  0  0  0  0  0  0  0  0  0
   39.6984   -0.7014   14.8185 C   0  0  0  0  0  0  0  0  0  0  0  0
   38.5069   -0.8082   13.8918 C   0  0  2  0  0  0  0  0  0  0  0  0
   38.7036   -1.3963   12.6013 O   0  0  0  0  0  0  0  0  0  0  0  0
   37.9519    0.5492   13.5662 C   0  0  2  0  0  0  0  0  0  0  0  0
   37.4561    1.2298   14.6918 O   0  0  0  0  0  0  0  0  0  0  0  0
   36.8545    0.1593   12.5864 C   0  0  1  0  0  0  0  0  0  0  0  0
   36.7091    1.2530   11.6828 O   0  0  0  0  0  0  0  0  0  0  0  0
   37.4050   -1.1476   11.9264 C   0  0  2  0  0  0  0  0  0  0  0  0
   34.1822   -5.5867   12.4677 O   0  0  0  0  0  0  0  0  0  0  0  0
   35.3796   -2.4172   11.3247 C   0  0  0  0  0  0  0  0  0  0  0  0
   35.0146   -1.5319   10.5514 O   0  0  0  0  0  0  0  0  0  0  0  0
   36.4056   -5.2860   13.7701 H   0  0  0  0  0  0  0  0  0  0  0  0
   37.8292   -3.3358   13.4785 H   0  0  0  0  0  0  0  0  0  0  0  0
   33.7813   -3.6550   10.9462 H   0  0  0  0  0  0  0  0  0  0  0  0
   43.2098   -3.4269   15.9702 H   0  0  0  0  0  0  0  0  0  0  0  0
   42.7399   -3.6067   14.2708 H   0  0  0  0  0  0  0  0  0  0  0  0
   41.4925   -1.7168   16.3547 H   0  0  0  0  0  0  0  0  0  0  0  0
   40.6950   -3.1373   15.6030 H   0  0  0  0  0  0  0  0  0  0  0  0
   43.1743   -1.8360   12.7563 H   0  0  0  0  0  0  0  0  0  0  0  0
   44.0279   -0.3930   13.3423 H   0  0  0  0  0  0  0  0  0  0  0  0
   41.5511    0.0738   13.0020 H   0  0  0  0  0  0  0  0  0  0  0  0
   42.0857    0.2750   14.7060 H   0  0  0  0  0  0  0  0  0  0  0  0
   39.9870    0.3380   14.9941 H   0  0  0  0  0  0  0  0  0  0  0  0
   39.4093   -1.0964   15.7980 H   0  0  0  0  0  0  0  0  0  0  0  0
   37.7592   -1.3951   14.4398 H   0  0  0  0  0  0  0  0  0  0  0  0
   38.7129    1.1731   13.0612 H   0  0  0  0  0  0  0  0  0  0  0  0
   38.1744    1.4954   15.2897 H   0  0  0  0  0  0  0  0  0  0  0  0
   35.8968    0.0014   13.0975 H   0  0  0  0  0  0  0  0  0  0  0  0
   36.5367    2.0486   12.2250 H   0  0  0  0  0  0  0  0  0  0  0  0
   37.5751   -0.9940   10.8523 H   0  0  0  0  0  0  0  0  0  0  0  0
   40.6458   -2.0239   13.5252 H   0  0  0  0  0  0  0  0  0  0  0  0
  1  2  1  0  0  0  0
  1  5  1  0  0  0  0
  1 20  2  0  0  0  0
  2  3  2  0  0  0  0
  2 23  1  0  0  0  0
  3  4  1  0  0  0  0
  3 24  1  0  0  0  0
  4 19  1  0  0  0  0
  4 21  1  0  0  0  0
  5 21  1  0  0  0  0
  5 25  1  0  0  0  0
  6  7  1  0  0  0  0
  6  9  1  0  0  0  0
  7  8  1  0  0  0  0
  7 26  1  0  0  0  0
  7 27  1  0  0  0  0
  8 11  1  0  0  0  0
  8 28  1  0  0  0  0
  8 29  1  0  0  0  0
  9 10  1  0  0  0  0
  9 30  1  0  0  0  0
  9 31  1  0  0  0  0
 10 11  1  0  0  0  0
 10 32  1  0  0  0  0
 10 33  1  0  0  0  0
 11 12  1  0  0  0  0
 11 42  1  0  0  0  0
 12 13  1  0  0  0  0
 12 34  1  0  0  0  0
 12 35  1  0  0  0  0
 13 14  1  0  0  0  0
 13 15  1  0  0  0  0
 13 36  1  1  0  0  0
 14 19  1  0  0  0  0
 15 16  1  0  0  0  0
 15 17  1  0  0  0  0
 15 37  1  6  0  0  0
 16 38  1  0  0  0  0
 17 18  1  0  0  0  0
 17 19  1  0  0  0  0
 17 39  1  1  0  0  0
 18 40  1  0  0  0  0
 19 41  1  6  0  0  0
 21 22  2  0  0  0  0
M  CHG  3   4   1   5   1  11   1
M  END
$$$$
