U46
 OpenBabel04091914053D

 57 59  0  0  1  0  0  0  0  0999 V2000
   -0.6123   -5.6186   23.6294 C   0  0  0  0  0  0  0  0  0  0  0  0
   -0.3672   -5.1464   24.9445 O   0  0  0  0  0  0  0  0  0  0  0  0
   -1.7049   -4.8081   22.9473 C   0  0  0  0  0  0  0  0  0  0  0  0
   -2.2969   -5.6022   21.7809 C   0  0  0  0  0  0  0  0  0  0  0  0
   -3.3438   -4.7761   21.0458 C   0  0  0  0  0  0  0  0  0  0  0  0
   -4.5704   -4.5448   21.8697 C   0  0  0  0  0  0  0  0  0  0  0  0
   -5.3802   -3.4982   21.6912 C   0  0  0  0  0  0  0  0  0  0  0  0
   -5.2125   -2.4149   20.6619 C   0  0  0  0  0  0  0  0  0  0  0  0
   -5.4791   -1.0254   21.2447 C   0  0  1  0  0  0  0  0  0  0  0  0
   -4.5361   -0.7355   22.3856 C   0  0  2  0  0  0  0  0  0  0  0  0
   -4.1003    0.6596   22.3206 C   0  0  1  0  0  0  0  0  0  0  0  0
   -3.1074   -0.3981   21.9649 C   0  0  2  0  0  0  0  0  0  0  0  0
   -2.8580    0.4041   20.7837 O   0  0  0  0  0  0  0  0  0  0  0  0
   -4.1676    1.0526   20.9021 C   0  0  1  0  0  0  0  0  0  0  0  0
   -5.1954    0.1082   20.2024 C   0  0  2  0  0  0  0  0  0  0  0  0
   -6.4547    0.8186   19.7841 C   0  0  0  0  0  0  0  0  0  0  0  0
   -7.0577    0.5389   18.6222 C   0  0  0  0  0  0  0  0  0  0  0  0
   -8.3587    1.1656   18.1871 C   0  0  0  0  0  0  0  0  0  0  0  0
   -8.6648    1.0436   16.6781 C   0  0  0  0  0  0  0  0  0  0  0  0
  -10.0911    1.5198   16.3461 C   0  0  0  0  0  0  0  0  0  0  0  0
  -10.4901    1.4494   14.8571 C   0  0  0  0  0  0  0  0  0  0  0  0
   -9.7913    2.4649   13.9451 C   0  0  0  0  0  0  0  0  0  0  0  0
  -10.2116    2.3412   12.4809 C   0  0  0  0  0  0  0  0  0  0  0  0
   -0.9095   -6.6650   23.7082 H   0  0  0  0  0  0  0  0  0  0  0  0
    0.3145   -5.5624   23.0497 H   0  0  0  0  0  0  0  0  0  0  0  0
   -0.0238   -4.2383   24.8826 H   0  0  0  0  0  0  0  0  0  0  0  0
   -1.2862   -3.8617   22.5822 H   0  0  0  0  0  0  0  0  0  0  0  0
   -2.4858   -4.5359   23.6682 H   0  0  0  0  0  0  0  0  0  0  0  0
   -2.7526   -6.5326   22.1507 H   0  0  0  0  0  0  0  0  0  0  0  0
   -1.5034   -5.8891   21.0827 H   0  0  0  0  0  0  0  0  0  0  0  0
   -3.6196   -5.2824   20.1070 H   0  0  0  0  0  0  0  0  0  0  0  0
   -2.8642   -3.8252   20.7790 H   0  0  0  0  0  0  0  0  0  0  0  0
   -4.7965   -5.2760   22.6567 H   0  0  0  0  0  0  0  0  0  0  0  0
   -6.2832   -3.4317   22.3378 H   0  0  0  0  0  0  0  0  0  0  0  0
   -5.8862   -2.5925   19.8188 H   0  0  0  0  0  0  0  0  0  0  0  0
   -4.1943   -2.4231   20.2334 H   0  0  0  0  0  0  0  0  0  0  0  0
   -6.5128   -0.9823   21.6154 H   0  0  0  0  0  0  0  0  0  0  0  0
   -4.7495   -1.1823   23.3439 H   0  0  0  0  0  0  0  0  0  0  0  0
   -3.9734    1.3746   23.1056 H   0  0  0  0  0  0  0  0  0  0  0  0
   -2.3419   -0.9375   22.4769 H   0  0  0  0  0  0  0  0  0  0  0  0
   -4.1331    2.0969   20.5871 H   0  0  0  0  0  0  0  0  0  0  0  0
   -4.7069   -0.2997   19.3067 H   0  0  0  0  0  0  0  0  0  0  0  0
   -6.8927    1.5503   20.4660 H   0  0  0  0  0  0  0  0  0  0  0  0
   -6.6245   -0.2209   17.9685 H   0  0  0  0  0  0  0  0  0  0  0  0
   -8.3366    2.2283   18.4558 H   0  0  0  0  0  0  0  0  0  0  0  0
   -9.1622    0.6865   18.7580 H   0  0  0  0  0  0  0  0  0  0  0  0
   -8.5536   -0.0028   16.3628 H   0  0  0  0  0  0  0  0  0  0  0  0
   -7.9343    1.6374   16.1199 H   0  0  0  0  0  0  0  0  0  0  0  0
  -10.2345    2.5413   16.7129 H   0  0  0  0  0  0  0  0  0  0  0  0
  -10.7966    0.8856   16.9006 H   0  0  0  0  0  0  0  0  0  0  0  0
  -11.5713    1.6306   14.7978 H   0  0  0  0  0  0  0  0  0  0  0  0
  -10.3166    0.4350   14.4809 H   0  0  0  0  0  0  0  0  0  0  0  0
   -8.7065    2.3321   14.0016 H   0  0  0  0  0  0  0  0  0  0  0  0
  -10.0209    3.4818   14.2834 H   0  0  0  0  0  0  0  0  0  0  0  0
   -9.6795    3.0832   11.8743 H   0  0  0  0  0  0  0  0  0  0  0  0
  -11.2847    2.5163   12.3501 H   0  0  0  0  0  0  0  0  0  0  0  0
   -9.9727    1.3519   12.0776 H   0  0  0  0  0  0  0  0  0  0  0  0
  1  2  1  0  0  0  0
  1  3  1  0  0  0  0
  1 24  1  0  0  0  0
  1 25  1  0  0  0  0
  2 26  1  0  0  0  0
  3  4  1  0  0  0  0
  3 27  1  0  0  0  0
  3 28  1  0  0  0  0
  4  5  1  0  0  0  0
  4 29  1  0  0  0  0
  4 30  1  0  0  0  0
  5  6  1  0  0  0  0
  5 31  1  0  0  0  0
  5 32  1  0  0  0  0
  6  7  2  0  0  0  0
  6 33  1  0  0  0  0
  7  8  1  0  0  0  0
  7 34  1  0  0  0  0
  8  9  1  0  0  0  0
  8 35  1  0  0  0  0
  8 36  1  0  0  0  0
  9 10  1  0  0  0  0
  9 15  1  0  0  0  0
  9 37  1  1  0  0  0
 10 11  1  0  0  0  0
 10 12  1  0  0  0  0
 10 38  1  1  0  0  0
 11 12  1  0  0  0  0
 11 14  1  0  0  0  0
 11 39  1  1  0  0  0
 12 13  1  0  0  0  0
 12 40  1  1  0  0  0
 13 14  1  0  0  0  0
 14 15  1  0  0  0  0
 14 41  1  6  0  0  0
 15 16  1  0  0  0  0
 15 42  1  6  0  0  0
 16 17  2  0  0  0  0
 16 43  1  0  0  0  0
 17 18  1  0  0  0  0
 17 44  1  0  0  0  0
 18 19  1  0  0  0  0
 18 45  1  0  0  0  0
 18 46  1  0  0  0  0
 19 20  1  0  0  0  0
 19 47  1  0  0  0  0
 19 48  1  0  0  0  0
 20 21  1  0  0  0  0
 20 49  1  0  0  0  0
 20 50  1  0  0  0  0
 21 22  1  0  0  0  0
 21 51  1  0  0  0  0
 21 52  1  0  0  0  0
 22 23  1  0  0  0  0
 22 53  1  0  0  0  0
 22 54  1  0  0  0  0
 23 55  1  0  0  0  0
 23 56  1  0  0  0  0
 23 57  1  0  0  0  0
M  END
$$$$
