U6M
 OpenBabel04091916333D

 35 36  0  0  1  0  0  0  0  0999 V2000
   15.8579   38.7443   37.2746 O   0  0  0  0  0  0  0  0  0  0  0  0
   15.5948   39.5749   36.4160 C   0  0  0  0  0  0  0  0  0  0  0  0
   14.2724   39.9178   36.2865 N   0  3  0  0  0  0  0  0  0  0  0  0
   13.7860   40.9237   35.5189 C   0  0  0  0  0  0  0  0  0  0  0  0
   12.6254   41.3155   35.5495 O   0  0  0  0  0  0  0  0  0  0  0  0
   14.7429   41.4787   34.5581 C   0  0  0  0  0  0  0  0  0  0  0  0
   16.0165   41.0524   34.5678 C   0  0  0  0  0  0  0  0  0  0  0  0
   16.8701   41.3336   33.3617 C   0  0  0  0  0  0  0  0  0  0  0  0
   16.4873   40.2406   35.6023 N   0  3  0  0  0  0  0  0  0  0  0  0
   17.9173   39.9333   35.7855 C   0  0  2  0  0  0  0  0  0  0  0  0
   18.1784   38.6300   35.2599 O   0  0  0  0  0  0  0  0  0  0  0  0
   18.4713   40.0055   37.2298 C   0  0  2  0  0  0  0  0  0  0  0  0
   18.8685   41.3310   37.6181 O   0  0  0  0  0  0  0  0  0  0  0  0
   19.6328   39.0266   37.1393 C   0  0  2  0  0  0  0  0  0  0  0  0
   20.7799   39.6754   36.5480 O   0  0  0  0  0  0  0  0  0  0  0  0
   19.1003   37.9640   36.1630 C   0  0  1  0  0  0  0  0  0  0  0  0
   18.4422   36.7873   36.8814 C   0  0  0  0  0  0  0  0  0  0  0  0
   19.4818   36.1002   37.5447 O   0  0  0  0  0  0  0  0  0  0  0  0
   19.0919   34.7114   38.3135 P   0  0  0  0  0  0  0  0  0  0  0  0
   18.9744   33.7016   37.1829 O   0  0  0  0  0  0  0  0  0  0  0  0
   17.7841   35.0321   39.0209 O   0  0  0  0  0  0  0  0  0  0  0  0
   20.2813   34.5053   39.2376 O   0  0  0  0  0  0  0  0  0  0  0  0
   13.6390   39.4337   36.9071 H   0  0  0  0  0  0  0  0  0  0  0  0
   14.3311   42.1331   33.8045 H   0  0  0  0  0  0  0  0  0  0  0  0
   16.3625   42.0097   32.6627 H   0  0  0  0  0  0  0  0  0  0  0  0
   17.0250   40.3909   32.8209 H   0  0  0  0  0  0  0  0  0  0  0  0
   17.8361   41.7811   33.5934 H   0  0  0  0  0  0  0  0  0  0  0  0
   18.5021   40.6498   35.2000 H   0  0  0  0  0  0  0  0  0  0  0  0
   17.7699   39.6554   37.9884 H   0  0  0  0  0  0  0  0  0  0  0  0
   18.0884   41.8974   37.5195 H   0  0  0  0  0  0  0  0  0  0  0  0
   19.9395   38.6467   38.1201 H   0  0  0  0  0  0  0  0  0  0  0  0
   21.4816   38.9987   36.5938 H   0  0  0  0  0  0  0  0  0  0  0  0
   19.9260   37.5840   35.5497 H   0  0  0  0  0  0  0  0  0  0  0  0
   17.9268   36.1395   36.1620 H   0  0  0  0  0  0  0  0  0  0  0  0
   17.7063   37.1346   37.6101 H   0  0  0  0  0  0  0  0  0  0  0  0
  1  2  2  0  0  0  0
  2  3  1  0  0  0  0
  2  9  1  0  0  0  0
  3  4  1  0  0  0  0
  3 23  1  0  0  0  0
  4  5  2  0  0  0  0
  4  6  1  0  0  0  0
  6  7  2  0  0  0  0
  6 24  1  0  0  0  0
  7  8  1  0  0  0  0
  7  9  1  0  0  0  0
  8 25  1  0  0  0  0
  8 26  1  0  0  0  0
  8 27  1  0  0  0  0
  9 10  1  0  0  0  0
 10 11  1  0  0  0  0
 10 12  1  0  0  0  0
 10 28  1  6  0  0  0
 11 16  1  0  0  0  0
 12 13  1  0  0  0  0
 12 14  1  0  0  0  0
 12 29  1  1  0  0  0
 13 30  1  0  0  0  0
 14 15  1  0  0  0  0
 14 16  1  0  0  0  0
 14 31  1  1  0  0  0
 15 32  1  0  0  0  0
 16 17  1  0  0  0  0
 16 33  1  6  0  0  0
 17 18  1  0  0  0  0
 17 34  1  0  0  0  0
 17 35  1  0  0  0  0
 18 19  1  0  0  0  0
 19 20  2  0  0  0  0
 19 21  1  0  0  0  0
 19 22  1  0  0  0  0
M  CHG  2   3   1   9   1
M  END
$$$$
