UD1
 OpenBabel04091916083D

 64 66  0  0  1  0  0  0  0  0999 V2000
  -39.6294    3.2610   10.6509 C   0  0  1  0  0  0  0  0  0  0  0  0
  -39.5682    2.2347    9.4770 C   0  0  1  0  0  0  0  0  0  0  0  0
  -38.3750    2.5791    8.5572 C   0  0  2  0  0  0  0  0  0  0  0  0
  -38.5031    4.0227    8.0412 C   0  0  1  0  0  0  0  0  0  0  0  0
  -38.5892    4.9592    9.2497 C   0  0  1  0  0  0  0  0  0  0  0  0
  -38.7344    6.4305    8.7907 C   0  0  0  0  0  0  0  0  0  0  0  0
  -40.4775    0.0808   10.3885 C   0  0  0  0  0  0  0  0  0  0  0  0
  -40.0687   -1.3053   10.8451 C   0  0  0  0  0  0  0  0  0  0  0  0
  -39.4434    0.8268    9.9056 N   0  0  0  0  0  0  0  0  0  0  0  0
  -38.4914    3.0709   11.4698 O   0  0  0  0  0  0  0  0  0  0  0  0
  -38.3143    1.6591    7.4394 O   0  0  0  0  0  0  0  0  0  0  0  0
  -37.3903    4.4186    7.2158 O   0  0  0  0  0  0  0  0  0  0  0  0
  -39.6938    4.5885   10.0933 O   0  0  0  0  0  0  0  0  0  0  0  0
  -39.9419    6.6578    8.0412 O   0  0  0  0  0  0  0  0  0  0  0  0
  -41.6520    0.4582   10.3619 O   0  0  0  0  0  0  0  0  0  0  0  0
  -35.6524    8.5593   16.9194 N   0  3  0  0  0  0  0  0  0  0  0  0
  -35.1385    8.9783   18.1549 C   0  0  0  0  0  0  0  0  0  0  0  0
  -35.6545    8.3655   19.2593 N   0  3  0  0  0  0  0  0  0  0  0  0
  -36.5751    7.3776   19.3065 C   0  0  0  0  0  0  0  0  0  0  0  0
  -37.0950    6.9310   17.9986 C   0  0  0  0  0  0  0  0  0  0  0  0
  -36.6086    7.5397   16.9054 C   0  0  0  0  0  0  0  0  0  0  0  0
  -34.3183    9.8897   18.3061 O   0  0  0  0  0  0  0  0  0  0  0  0
  -36.9722    6.8530   20.3656 O   0  0  0  0  0  0  0  0  0  0  0  0
  -35.1684    9.1616   15.6903 C   0  0  1  0  0  0  0  0  0  0  0  0
  -34.3846    8.2195   14.7577 C   0  0  2  0  0  0  0  0  0  0  0  0
  -33.1108    7.7714   15.2323 O   0  0  0  0  0  0  0  0  0  0  0  0
  -34.4061    9.0452   13.4623 C   0  0  1  0  0  0  0  0  0  0  0  0
  -35.8824    9.5393   13.4876 C   0  0  2  0  0  0  0  0  0  0  0  0
  -36.2647    9.6590   14.8871 O   0  0  0  0  0  0  0  0  0  0  0  0
  -33.4041   10.0955   13.5445 O   0  0  0  0  0  0  0  0  0  0  0  0
  -36.9127    8.5973   12.7828 C   0  0  0  0  0  0  0  0  0  0  0  0
  -36.9952    7.2912   13.3459 O   0  0  0  0  0  0  0  0  0  0  0  0
  -38.4802    6.5784   13.4997 P   0  0  2  0  0  0  0  0  0  0  0  0
  -39.4933    7.4978   12.8603 O   0  0  0  0  0  0  0  0  0  0  0  0
  -38.6252    6.2085   14.9530 O   0  0  0  0  0  0  0  0  0  0  0  0
  -38.2999    5.3129   12.5309 O   0  0  0  0  0  0  0  0  0  0  0  0
  -38.4175    3.7721   12.9407 P   0  0  1  0  0  0  0  0  0  0  0  0
  -39.7114    3.4297   13.6403 O   0  0  0  0  0  0  0  0  0  0  0  0
  -37.0835    3.3285   13.4928 O   0  0  0  0  0  0  0  0  0  0  0  0
  -40.5559    3.0626   11.2118 H   0  0  0  0  0  0  0  0  0  0  0  0
  -40.4843    2.3219    8.8711 H   0  0  0  0  0  0  0  0  0  0  0  0
  -37.4372    2.4577    9.1156 H   0  0  0  0  0  0  0  0  0  0  0  0
  -39.4171    4.0864    7.4354 H   0  0  0  0  0  0  0  0  0  0  0  0
  -37.6428    4.8988    9.8085 H   0  0  0  0  0  0  0  0  0  0  0  0
  -37.8977    6.7081    8.1372 H   0  0  0  0  0  0  0  0  0  0  0  0
  -38.7201    7.0941    9.6610 H   0  0  0  0  0  0  0  0  0  0  0  0
  -40.9461   -1.8755   11.1638 H   0  0  0  0  0  0  0  0  0  0  0  0
  -39.3710   -1.2421   11.6832 H   0  0  0  0  0  0  0  0  0  0  0  0
  -39.5879   -1.8505   10.0250 H   0  0  0  0  0  0  0  0  0  0  0  0
  -38.5020    0.4766   10.0233 H   0  0  0  0  0  0  0  0  0  0  0  0
  -39.1712    1.7077    6.9789 H   0  0  0  0  0  0  0  0  0  0  0  0
  -37.3309    3.8258    6.4494 H   0  0  0  0  0  0  0  0  0  0  0  0
  -39.9900    7.6087    7.8384 H   0  0  0  0  0  0  0  0  0  0  0  0
  -35.3075    8.6684   20.1527 H   0  0  0  0  0  0  0  0  0  0  0  0
  -37.8415    6.1464   17.9417 H   0  0  0  0  0  0  0  0  0  0  0  0
  -36.9747    7.2316   15.9358 H   0  0  0  0  0  0  0  0  0  0  0  0
  -34.5654   10.0461   15.9292 H   0  0  0  0  0  0  0  0  0  0  0  0
  -34.9848    7.3316   14.5855 H   0  0  0  0  0  0  0  0  0  0  0  0
  -32.7610    7.1379   14.5779 H   0  0  0  0  0  0  0  0  0  0  0  0
  -34.1868    8.4742   12.5574 H   0  0  0  0  0  0  0  0  0  0  0  0
  -35.9728   10.5420   13.0441 H   0  0  0  0  0  0  0  0  0  0  0  0
  -33.4528   10.6972   12.7807 H   0  0  0  0  0  0  0  0  0  0  0  0
  -36.6270    8.4772   11.7315 H   0  0  0  0  0  0  0  0  0  0  0  0
  -37.8894    9.0909   12.8163 H   0  0  0  0  0  0  0  0  0  0  0  0
  1  2  1  0  0  0  0
  1 10  1  0  0  0  0
  1 13  1  0  0  0  0
  1 40  1  1  0  0  0
  2  3  1  0  0  0  0
  2  9  1  0  0  0  0
  2 41  1  6  0  0  0
  3  4  1  0  0  0  0
  3 11  1  0  0  0  0
  3 42  1  1  0  0  0
  4  5  1  0  0  0  0
  4 12  1  0  0  0  0
  4 43  1  6  0  0  0
  5  6  1  0  0  0  0
  5 13  1  0  0  0  0
  5 44  1  1  0  0  0
  6 14  1  0  0  0  0
  6 45  1  0  0  0  0
  6 46  1  0  0  0  0
  7  8  1  0  0  0  0
  7  9  1  0  0  0  0
  7 15  2  0  0  0  0
  8 47  1  0  0  0  0
  8 48  1  0  0  0  0
  8 49  1  0  0  0  0
  9 50  1  0  0  0  0
 11 51  1  0  0  0  0
 12 52  1  0  0  0  0
 14 53  1  0  0  0  0
 16 17  1  0  0  0  0
 16 21  1  0  0  0  0
 16 24  1  0  0  0  0
 17 18  1  0  0  0  0
 17 22  2  0  0  0  0
 18 19  1  0  0  0  0
 18 54  1  0  0  0  0
 19 20  1  0  0  0  0
 19 23  2  0  0  0  0
 20 21  2  0  0  0  0
 20 55  1  0  0  0  0
 21 56  1  0  0  0  0
 24 25  1  0  0  0  0
 24 29  1  0  0  0  0
 24 57  1  1  0  0  0
 25 26  1  0  0  0  0
 25 27  1  0  0  0  0
 25 58  1  6  0  0  0
 26 59  1  0  0  0  0
 27 28  1  0  0  0  0
 27 30  1  0  0  0  0
 27 60  1  6  0  0  0
 28 29  1  0  0  0  0
 28 31  1  0  0  0  0
 28 61  1  6  0  0  0
 30 62  1  0  0  0  0
 31 32  1  0  0  0  0
 31 63  1  0  0  0  0
 31 64  1  0  0  0  0
 33 32  1  6  0  0  0
 33 34  2  0  0  0  0
 33 35  1  0  0  0  0
 33 36  1  0  0  0  0
 36 37  1  0  0  0  0
 37 10  1  6  0  0  0
 37 38  2  0  0  0  0
 37 39  1  0  0  0  0
M  CHG  2  16   1  18   1
M  END
$$$$
