UDP
 OpenBabel04091911293D

 36 37  0  0  1  0  0  0  0  0999 V2000
   29.6971   39.5278    6.6583 N   0  3  0  0  0  0  0  0  0  0  0  0
   29.5600   38.5148    5.7223 C   0  0  0  0  0  0  0  0  0  0  0  0
   29.4407   38.9328    4.4197 N   0  3  0  0  0  0  0  0  0  0  0  0
   29.4795   40.2161    3.9554 C   0  0  0  0  0  0  0  0  0  0  0  0
   29.6500   41.2390    4.9985 C   0  0  0  0  0  0  0  0  0  0  0  0
   29.7287   40.8507    6.2560 C   0  0  0  0  0  0  0  0  0  0  0  0
   29.5445   37.3095    5.9653 O   0  0  0  0  0  0  0  0  0  0  0  0
   29.3925   40.4845    2.7652 O   0  0  0  0  0  0  0  0  0  0  0  0
   29.8538   39.1433    8.0765 C   0  0  1  0  0  0  0  0  0  0  0  0
   31.3059   38.9081    8.5204 C   0  0  2  0  0  0  0  0  0  0  0  0
   31.4639   37.5778    9.0738 O   0  0  0  0  0  0  0  0  0  0  0  0
   31.5725   39.9705    9.5758 C   0  0  1  0  0  0  0  0  0  0  0  0
   30.1961   40.5398    9.9411 C   0  0  2  0  0  0  0  0  0  0  0  0
   29.2461   40.0916    8.9510 O   0  0  0  0  0  0  0  0  0  0  0  0
   32.2516   39.3722   10.7028 O   0  0  0  0  0  0  0  0  0  0  0  0
   30.2284   42.0803   10.1143 C   0  0  0  0  0  0  0  0  0  0  0  0
   29.6523   42.7127    8.9941 O   0  0  0  0  0  0  0  0  0  0  0  0
   30.3346   44.0637    8.3914 P   0  0  2  0  0  0  0  0  0  0  0  0
   29.9585   44.0385    6.9013 O   0  0  0  0  0  0  0  0  0  0  0  0
   31.8261   44.0148    8.6530 O   0  0  0  0  0  0  0  0  0  0  0  0
   29.5328   45.2383    9.1224 O   0  0  0  0  0  0  0  0  0  0  0  0
   29.4058   45.6522   10.6818 P   0  0  0  0  0  0  0  0  0  0  0  0
   28.4424   44.6357   11.3109 O   0  0  0  0  0  0  0  0  0  0  0  0
   28.8272   47.0662   10.6685 O   0  0  0  0  0  0  0  0  0  0  0  0
   30.8149   45.6020   11.2586 O   0  0  0  0  0  0  0  0  0  0  0  0
   29.3200   38.2042    3.7297 H   0  0  0  0  0  0  0  0  0  0  0  0
   29.6840   42.2855    4.7214 H   0  0  0  0  0  0  0  0  0  0  0  0
   29.8150   41.5922    7.0411 H   0  0  0  0  0  0  0  0  0  0  0  0
   29.2991   38.2117    8.2196 H   0  0  0  0  0  0  0  0  0  0  0  0
   32.0172   38.9843    7.6914 H   0  0  0  0  0  0  0  0  0  0  0  0
   32.3941   37.5363    9.3633 H   0  0  0  0  0  0  0  0  0  0  0  0
   32.2277   40.7449    9.1685 H   0  0  0  0  0  0  0  0  0  0  0  0
   29.8764   40.1004   10.8962 H   0  0  0  0  0  0  0  0  0  0  0  0
   31.6154   38.7468   11.0952 H   0  0  0  0  0  0  0  0  0  0  0  0
   31.2594   42.4038   10.2819 H   0  0  0  0  0  0  0  0  0  0  0  0
   29.6710   42.3443   11.0175 H   0  0  0  0  0  0  0  0  0  0  0  0
  1  2  1  0  0  0  0
  1  6  1  0  0  0  0
  1  9  1  0  0  0  0
  2  3  1  0  0  0  0
  2  7  2  0  0  0  0
  3  4  1  0  0  0  0
  3 26  1  0  0  0  0
  4  5  1  0  0  0  0
  4  8  2  0  0  0  0
  5  6  2  0  0  0  0
  5 27  1  0  0  0  0
  6 28  1  0  0  0  0
  9 10  1  0  0  0  0
  9 14  1  0  0  0  0
  9 29  1  1  0  0  0
 10 11  1  0  0  0  0
 10 12  1  0  0  0  0
 10 30  1  6  0  0  0
 11 31  1  0  0  0  0
 12 13  1  0  0  0  0
 12 15  1  0  0  0  0
 12 32  1  6  0  0  0
 13 14  1  0  0  0  0
 13 16  1  0  0  0  0
 13 33  1  1  0  0  0
 15 34  1  0  0  0  0
 16 17  1  0  0  0  0
 16 35  1  0  0  0  0
 16 36  1  0  0  0  0
 18 17  1  1  0  0  0
 18 19  2  0  0  0  0
 18 20  1  0  0  0  0
 18 21  1  0  0  0  0
 21 22  1  0  0  0  0
 22 23  2  0  0  0  0
 22 24  1  0  0  0  0
 22 25  1  0  0  0  0
M  CHG  2   1   1   3   1
M  END
$$$$
