UPG
 OpenBabel04091913173D

 58 60  0  0  1  0  0  0  0  0999 V2000
   59.9003   37.2994   55.8426 N   0  3  0  0  0  0  0  0  0  0  0  0
   60.0652   35.9374   55.8452 C   0  0  0  0  0  0  0  0  0  0  0  0
   58.9516   35.1895   55.7627 N   0  3  0  0  0  0  0  0  0  0  0  0
   57.7426   35.7347   55.6904 C   0  0  0  0  0  0  0  0  0  0  0  0
   57.5699   37.1795   55.6945 C   0  0  0  0  0  0  0  0  0  0  0  0
   58.6703   37.9127   55.7761 C   0  0  0  0  0  0  0  0  0  0  0  0
   61.1436   35.3523   55.9139 O   0  0  0  0  0  0  0  0  0  0  0  0
   56.6758   35.0787   55.6167 O   0  0  0  0  0  0  0  0  0  0  0  0
   61.1090   38.0749   55.9534 C   0  0  1  0  0  0  0  0  0  0  0  0
   61.4451   38.9441   54.7563 C   0  0  2  0  0  0  0  0  0  0  0  0
   62.0658   38.2145   53.7022 O   0  0  0  0  0  0  0  0  0  0  0  0
   62.2806   40.0354   55.4063 C   0  0  1  0  0  0  0  0  0  0  0  0
   61.6737   40.1513   56.7841 C   0  0  2  0  0  0  0  0  0  0  0  0
   60.9588   38.9416   57.0722 O   0  0  0  0  0  0  0  0  0  0  0  0
   63.6399   39.6858   55.6961 O   0  0  0  0  0  0  0  0  0  0  0  0
   60.8080   41.3563   56.9368 C   0  0  0  0  0  0  0  0  0  0  0  0
   59.7767   41.2017   56.0031 O   0  0  0  0  0  0  0  0  0  0  0  0
   59.1100   42.5575   55.4358 P   0  0  2  0  0  0  0  0  0  0  0  0
   57.9565   42.0592   54.6128 O   0  0  0  0  0  0  0  0  0  0  0  0
   60.1636   43.3042   54.6734 O   0  0  0  0  0  0  0  0  0  0  0  0
   58.5937   43.2057   56.7898 O   0  0  0  0  0  0  0  0  0  0  0  0
   58.3720   44.7782   56.9373 P   0  0  1  0  0  0  0  0  0  0  0  0
   59.5428   45.5638   56.4344 O   0  0  0  0  0  0  0  0  0  0  0  0
   57.0009   45.1745   56.4431 O   0  0  0  0  0  0  0  0  0  0  0  0
   58.3709   44.9430   58.5500 O   0  0  0  0  0  0  0  0  0  0  0  0
   59.4574   44.5444   59.3611 C   0  0  2  0  0  0  0  0  0  0  0  0
   58.9250   44.5683   60.8009 C   0  0  1  0  0  0  0  0  0  0  0  0
   58.5944   46.0122   61.2341 C   0  0  2  0  0  0  0  0  0  0  0  0
   59.8414   46.8866   61.0246 C   0  0  1  0  0  0  0  0  0  0  0  0
   60.2907   46.7341   59.5670 C   0  0  1  0  0  0  0  0  0  0  0  0
   61.5280   47.5801   59.3259 C   0  0  0  0  0  0  0  0  0  0  0  0
   57.7566   43.7383   60.8638 O   0  0  0  0  0  0  0  0  0  0  0  0
   58.1380   46.0535   62.5972 O   0  0  0  0  0  0  0  0  0  0  0  0
   59.6658   48.2660   61.3731 O   0  0  0  0  0  0  0  0  0  0  0  0
   60.6020   45.3679   59.3140 O   0  0  0  0  0  0  0  0  0  0  0  0
   62.3493   47.0424   58.3147 O   0  0  0  0  0  0  0  0  0  0  0  0
   59.0367   34.1888   55.7599 H   0  0  0  0  0  0  0  0  0  0  0  0
   56.5793   37.5837   55.6317 H   0  0  0  0  0  0  0  0  0  0  0  0
   58.6212   39.0023   55.7866 H   0  0  0  0  0  0  0  0  0  0  0  0
   61.9491   37.4027   56.1462 H   0  0  0  0  0  0  0  0  0  0  0  0
   60.5369   39.3963   54.3576 H   0  0  0  0  0  0  0  0  0  0  0  0
   62.2314   38.8419   52.9808 H   0  0  0  0  0  0  0  0  0  0  0  0
   62.2445   40.9625   54.8300 H   0  0  0  0  0  0  0  0  0  0  0  0
   62.4567   40.2191   57.5294 H   0  0  0  0  0  0  0  0  0  0  0  0
   64.1156   39.6138   54.8628 H   0  0  0  0  0  0  0  0  0  0  0  0
   61.3969   42.2541   56.7475 H   0  0  0  0  0  0  0  0  0  0  0  0
   60.3644   41.3898   57.9303 H   0  0  0  0  0  0  0  0  0  0  0  0
   59.7464   43.5226   59.1228 H   0  0  0  0  0  0  0  0  0  0  0  0
   59.6669   44.1569   61.4953 H   0  0  0  0  0  0  0  0  0  0  0  0
   57.7734   46.3937   60.6278 H   0  0  0  0  0  0  0  0  0  0  0  0
   60.6235   46.4974   61.6850 H   0  0  0  0  0  0  0  0  0  0  0  0
   59.5044   47.0773   58.8871 H   0  0  0  0  0  0  0  0  0  0  0  0
   62.1301   47.6303   60.2387 H   0  0  0  0  0  0  0  0  0  0  0  0
   61.2283   48.5864   59.0222 H   0  0  0  0  0  0  0  0  0  0  0  0
   57.1334   44.1166   60.2037 H   0  0  0  0  0  0  0  0  0  0  0  0
   57.3602   45.4649   62.6410 H   0  0  0  0  0  0  0  0  0  0  0  0
   60.5310   48.7008   61.2704 H   0  0  0  0  0  0  0  0  0  0  0  0
   63.1023   47.6319   58.2115 H   0  0  0  0  0  0  0  0  0  0  0  0
  1  2  1  0  0  0  0
  1  6  1  0  0  0  0
  1  9  1  0  0  0  0
  2  3  1  0  0  0  0
  2  7  2  0  0  0  0
  3  4  1  0  0  0  0
  3 37  1  0  0  0  0
  4  5  1  0  0  0  0
  4  8  2  0  0  0  0
  5  6  2  0  0  0  0
  5 38  1  0  0  0  0
  6 39  1  0  0  0  0
  9 10  1  0  0  0  0
  9 14  1  0  0  0  0
  9 40  1  1  0  0  0
 10 11  1  0  0  0  0
 10 12  1  0  0  0  0
 10 41  1  6  0  0  0
 11 42  1  0  0  0  0
 12 13  1  0  0  0  0
 12 15  1  0  0  0  0
 12 43  1  6  0  0  0
 13 14  1  0  0  0  0
 13 16  1  0  0  0  0
 13 44  1  1  0  0  0
 15 45  1  0  0  0  0
 16 17  1  0  0  0  0
 16 46  1  0  0  0  0
 16 47  1  0  0  0  0
 18 17  1  1  0  0  0
 18 19  2  0  0  0  0
 18 20  1  0  0  0  0
 18 21  1  0  0  0  0
 22 21  1  6  0  0  0
 22 23  2  0  0  0  0
 22 24  1  0  0  0  0
 22 25  1  0  0  0  0
 25 26  1  0  0  0  0
 26 27  1  0  0  0  0
 26 35  1  0  0  0  0
 26 48  1  6  0  0  0
 27 28  1  0  0  0  0
 27 32  1  0  0  0  0
 27 49  1  1  0  0  0
 28 29  1  0  0  0  0
 28 33  1  0  0  0  0
 28 50  1  6  0  0  0
 29 30  1  0  0  0  0
 29 34  1  0  0  0  0
 29 51  1  1  0  0  0
 30 31  1  0  0  0  0
 30 35  1  0  0  0  0
 30 52  1  6  0  0  0
 31 36  1  0  0  0  0
 31 53  1  0  0  0  0
 31 54  1  0  0  0  0
 32 55  1  0  0  0  0
 33 56  1  0  0  0  0
 34 57  1  0  0  0  0
 36 58  1  0  0  0  0
M  CHG  2   1   1   3   1
M  END
$$$$
