UW9
 OpenBabel04091916093D

 62 65  0  0  1  0  0  0  0  0999 V2000
   21.1517   16.9245   61.1456 C   0  0  0  0  0  0  0  0  0  0  0  0
   19.7218   16.7765   60.6187 C   0  0  0  0  0  0  0  0  0  0  0  0
   19.5360   15.3443   60.0961 C   0  0  0  0  0  0  0  0  0  0  0  0
   18.5946   17.0938   61.6418 C   0  0  2  0  0  0  0  0  0  0  0  0
   18.4657   18.6192   61.8644 N   0  3  0  0  0  0  0  0  0  0  0  0
   19.4363   19.2600   62.8197 C   0  0  0  0  0  0  0  0  0  0  0  0
   17.0497   18.9727   62.2835 C   0  0  0  0  0  0  0  0  0  0  0  0
   18.7113   16.3231   62.9679 C   0  0  0  0  0  0  0  0  0  0  0  0
   17.6070   15.4117   63.1467 N   0  3  0  0  0  0  0  0  0  0  0  0
   16.3733   15.9004   63.3490 N   0  0  0  0  0  0  0  0  0  0  0  0
   17.6847   14.0502   63.1327 C   0  0  0  0  0  0  0  0  0  0  0  0
   18.7790   13.3158   62.9170 N   0  0  0  0  0  0  0  0  0  0  0  0
   18.4922   12.0043   62.9543 C   0  0  0  0  0  0  0  0  0  0  0  0
   17.2917   11.4324   63.1851 N   0  0  0  0  0  0  0  0  0  0  0  0
   16.2264   12.2222   63.4153 C   0  0  0  0  0  0  0  0  0  0  0  0
   15.0254   11.6007   63.6583 N   0  0  0  0  0  0  0  0  0  0  0  0
   16.4084   13.6054   63.3927 C   0  0  0  0  0  0  0  0  0  0  0  0
   15.6396   14.7914   63.5514 C   0  0  0  0  0  0  0  0  0  0  0  0
   14.2323   14.8822   63.8726 C   0  0  0  0  0  0  0  0  0  0  0  0
   13.7310   14.2081   64.9947 C   0  0  0  0  0  0  0  0  0  0  0  0
   13.3822   15.6223   63.0480 C   0  0  0  0  0  0  0  0  0  0  0  0
   12.0301   15.6822   63.3305 C   0  0  0  0  0  0  0  0  0  0  0  0
   11.5250   15.0034   64.4417 C   0  0  0  0  0  0  0  0  0  0  0  0
   10.1678   15.0728   64.7181 C   0  0  0  0  0  0  0  0  0  0  0  0
   12.3694   14.2511   65.2883 C   0  0  0  0  0  0  0  0  0  0  0  0
   11.8236   13.5776   66.3881 C   0  0  0  0  0  0  0  0  0  0  0  0
   10.4532   13.6463   66.6379 C   0  0  0  0  0  0  0  0  0  0  0  0
    9.6196   14.3815   65.7960 C   0  0  0  0  0  0  0  0  0  0  0  0
    8.2796   14.3633   66.0793 O   0  0  0  0  0  0  0  0  0  0  0  0
    7.4516   14.9736   65.0833 C   0  0  0  0  0  0  0  0  0  0  0  0
    6.0177   14.5572   65.2986 C   0  0  0  0  0  0  0  0  0  0  0  0
   21.8790   16.5915   60.4008 H   0  0  0  0  0  0  0  0  0  0  0  0
   21.3267   16.3424   62.0544 H   0  0  0  0  0  0  0  0  0  0  0  0
   21.4091   17.9602   61.3499 H   0  0  0  0  0  0  0  0  0  0  0  0
   19.6106   17.4463   59.7554 H   0  0  0  0  0  0  0  0  0  0  0  0
   18.5304   15.2021   59.6855 H   0  0  0  0  0  0  0  0  0  0  0  0
   19.6840   14.6106   60.8908 H   0  0  0  0  0  0  0  0  0  0  0  0
   20.2575   15.1169   59.3062 H   0  0  0  0  0  0  0  0  0  0  0  0
   17.6577   16.8328   61.1268 H   0  0  0  0  0  0  0  0  0  0  0  0
   19.2458   20.3337   62.8297 H   0  0  0  0  0  0  0  0  0  0  0  0
   20.4508   19.0942   62.4835 H   0  0  0  0  0  0  0  0  0  0  0  0
   19.2955   18.8463   63.8181 H   0  0  0  0  0  0  0  0  0  0  0  0
   16.3558   18.5768   61.5376 H   0  0  0  0  0  0  0  0  0  0  0  0
   16.9762   20.0623   62.3179 H   0  0  0  0  0  0  0  0  0  0  0  0
   16.8694   18.5452   63.2712 H   0  0  0  0  0  0  0  0  0  0  0  0
   18.6977   16.9546   63.8570 H   0  0  0  0  0  0  0  0  0  0  0  0
   19.6245   15.7296   63.0242 H   0  0  0  0  0  0  0  0  0  0  0  0
   19.3194   11.3255   62.7761 H   0  0  0  0  0  0  0  0  0  0  0  0
   14.1545   12.0964   63.7302 H   0  0  0  0  0  0  0  0  0  0  0  0
   15.0187   10.5815   63.5854 H   0  0  0  0  0  0  0  0  0  0  0  0
   14.4027   13.6409   65.6388 H   0  0  0  0  0  0  0  0  0  0  0  0
   13.7682   16.1449   62.1773 H   0  0  0  0  0  0  0  0  0  0  0  0
   11.3706   16.2503   62.6806 H   0  0  0  0  0  0  0  0  0  0  0  0
    9.5523   15.6762   64.0612 H   0  0  0  0  0  0  0  0  0  0  0  0
   12.4584   12.9891   67.0510 H   0  0  0  0  0  0  0  0  0  0  0  0
   10.0344   13.1139   67.4913 H   0  0  0  0  0  0  0  0  0  0  0  0
    7.7316   14.6366   64.0776 H   0  0  0  0  0  0  0  0  0  0  0  0
    7.5409   16.0651   65.1521 H   0  0  0  0  0  0  0  0  0  0  0  0
    5.3779   15.0022   64.5310 H   0  0  0  0  0  0  0  0  0  0  0  0
    5.6691   14.8666   66.2864 H   0  0  0  0  0  0  0  0  0  0  0  0
    5.9349   13.4677   65.2404 H   0  0  0  0  0  0  0  0  0  0  0  0
   18.6000   19.0656   60.9461 H   0  0  0  0  0  0  0  0  0  0  0  0
  1  2  1  0  0  0  0
  1 32  1  0  0  0  0
  1 33  1  0  0  0  0
  1 34  1  0  0  0  0
  2  3  1  0  0  0  0
  2  4  1  0  0  0  0
  2 35  1  0  0  0  0
  3 36  1  0  0  0  0
  3 37  1  0  0  0  0
  3 38  1  0  0  0  0
  4  5  1  0  0  0  0
  4  8  1  0  0  0  0
  4 39  1  6  0  0  0
  5  6  1  0  0  0  0
  5  7  1  0  0  0  0
  5 62  1  0  0  0  0
  6 40  1  0  0  0  0
  6 41  1  0  0  0  0
  6 42  1  0  0  0  0
  7 43  1  0  0  0  0
  7 44  1  0  0  0  0
  7 45  1  0  0  0  0
  8  9  1  0  0  0  0
  8 46  1  0  0  0  0
  8 47  1  0  0  0  0
  9 10  1  0  0  0  0
  9 11  2  0  0  0  0
 10 18  1  0  0  0  0
 11 12  1  0  0  0  0
 11 17  1  0  0  0  0
 12 13  2  0  0  0  0
 13 14  1  0  0  0  0
 13 48  1  0  0  0  0
 14 15  2  0  0  0  0
 15 16  1  0  0  0  0
 15 17  1  0  0  0  0
 16 49  1  0  0  0  0
 16 50  1  0  0  0  0
 17 18  2  0  0  0  0
 18 19  1  0  0  0  0
 19 20  2  0  0  0  0
 19 21  1  0  0  0  0
 20 25  1  0  0  0  0
 20 51  1  0  0  0  0
 21 22  2  0  0  0  0
 21 52  1  0  0  0  0
 22 23  1  0  0  0  0
 22 53  1  0  0  0  0
 23 24  2  0  0  0  0
 23 25  1  0  0  0  0
 24 28  1  0  0  0  0
 24 54  1  0  0  0  0
 25 26  2  0  0  0  0
 26 27  1  0  0  0  0
 26 55  1  0  0  0  0
 27 28  2  0  0  0  0
 27 56  1  0  0  0  0
 28 29  1  0  0  0  0
 29 30  1  0  0  0  0
 30 31  1  0  0  0  0
 30 57  1  0  0  0  0
 30 58  1  0  0  0  0
 31 59  1  0  0  0  0
 31 60  1  0  0  0  0
 31 61  1  0  0  0  0
M  CHG  2   5   1   9   1
M  END
$$$$
