VBN
 OpenBabel04091914573D

 96100  0  0  1  0  0  0  0  0999 V2000
   24.6045   18.1163    4.4104 C   0  0  0  0  0  0  0  0  0  0  0  0
   23.5928   16.0500    5.5447 N   0  3  0  0  0  0  0  0  0  0  0  0
   23.7240   18.8395    4.9559 O   0  0  0  0  0  0  0  0  0  0  0  0
   24.4580   16.5761    4.4550 C   0  0  1  0  0  0  0  0  0  0  0  0
   23.7757   16.0517    3.2069 C   0  0  2  0  0  0  0  0  0  0  0  0
   31.6585   13.4787    5.9350 C   0  0  0  0  0  0  0  0  0  0  0  0
   26.7146   21.5653    8.2900 O   0  0  0  0  0  0  0  0  0  0  0  0
   28.4006   14.8654    3.0421 O   0  0  0  0  0  0  0  0  0  0  0  0
   24.5467   16.0905    9.6297 O   0  0  0  0  0  0  0  0  0  0  0  0
   19.8672   15.5680    9.2242 O   0  0  0  0  0  0  0  0  0  0  0  0
   23.7155   13.6982    7.8984 O   0  0  0  0  0  0  0  0  0  0  0  0
   25.0511   17.7571    7.5961 O   0  0  0  0  0  0  0  0  0  0  0  0
   22.1815   16.0930    7.7950 O   0  0  0  0  0  0  0  0  0  0  0  0
   25.8597   14.8465    6.7978 O   0  0  0  0  0  0  0  0  0  0  0  0
   25.7902   19.0348   11.5057 C   0  0  0  0  0  0  0  0  0  0  0  0
   18.7719   14.9104    5.7619 C   0  0  0  0  0  0  0  0  0  0  0  0
   25.9486   10.7781    7.5663 C   0  0  0  0  0  0  0  0  0  0  0  0
   25.2625   17.7523   11.2649 C   0  0  0  0  0  0  0  0  0  0  0  0
   18.7479   15.0433    7.1666 C   0  0  0  0  0  0  0  0  0  0  0  0
   24.8238   11.5580    7.9088 C   0  0  0  0  0  0  0  0  0  0  0  0
   26.0562   19.9236   10.4515 C   0  0  0  0  0  0  0  0  0  0  0  0
   19.9380   15.1842    5.0406 C   0  0  0  0  0  0  0  0  0  0  0  0
   27.0593   11.3597    6.9324 C   0  0  0  0  0  0  0  0  0  0  0  0
   26.3912   20.9842    4.4888 C   0  0  0  0  0  0  0  0  0  0  0  0
   28.0069   18.4930    2.6556 C   0  0  0  0  0  0  0  0  0  0  0  0
   25.5467   21.3430    5.7180 C   0  0  0  0  0  0  0  0  0  0  0  0
   29.1454   17.5357    2.2889 C   0  0  0  0  0  0  0  0  0  0  0  0
   25.6891   20.1007    3.4472 C   0  0  0  0  0  0  0  0  0  0  0  0
   26.7344   17.7924    3.1202 C   0  0  0  0  0  0  0  0  0  0  0  0
   25.5283   20.3097    6.7645 N   0  0  0  0  0  0  0  0  0  0  0  0
   29.6204   16.7849    3.4714 N   0  0  0  0  0  0  0  0  0  0  0  0
   28.5052   14.7512    6.0325 N   0  3  0  0  0  0  0  0  0  0  0  0
   29.3937   12.6160    5.7045 O   0  0  0  0  0  0  0  0  0  0  0  0
   26.0309   20.5246    8.0229 C   0  0  0  0  0  0  0  0  0  0  0  0
   29.2300   15.4945    3.7382 C   0  0  0  0  0  0  0  0  0  0  0  0
   22.2521   16.1317    4.9376 C   0  0  2  0  0  0  0  0  0  0  0  0
   25.0252   17.3471    9.9495 C   0  0  0  0  0  0  0  0  0  0  0  0
   19.8807   15.4511    7.8605 C   0  0  0  0  0  0  0  0  0  0  0  0
   24.8215   12.9077    7.6149 C   0  0  0  0  0  0  0  0  0  0  0  0
   25.2980   18.2247    8.8826 C   0  0  0  0  0  0  0  0  0  0  0  0
   21.0374   15.7054    7.1264 C   0  0  0  0  0  0  0  0  0  0  0  0
   25.9298   13.4777    7.0275 C   0  0  0  0  0  0  0  0  0  0  0  0
   25.7916   19.5221    9.1164 C   0  0  0  0  0  0  0  0  0  0  0  0
   21.0947   15.5834    5.7250 C   0  0  0  0  0  0  0  0  0  0  0  0
   27.0643   12.7504    6.6711 C   0  0  0  0  0  0  0  0  0  0  0  0
   30.3426   13.5552    5.1434 C   0  0  1  0  0  0  0  0  0  0  0  0
   28.1767   13.3176    5.8146 C   0  0  1  0  0  0  0  0  0  0  0  0
   29.7001   14.9280    5.1257 C   0  0  2  0  0  0  0  0  0  0  0  0
   25.7008   18.6470    3.7534 N   0  0  0  0  0  0  0  0  0  0  0  0
   22.3902   15.8115    3.5402 O   0  0  0  0  0  0  0  0  0  0  0  0
   24.4488   14.8230    2.5740 C   0  0  0  0  0  0  0  0  0  0  0  0
   23.8239   15.0771    5.7685 H   0  0  0  0  0  0  0  0  0  0  0  0
   25.4420   16.1624    4.6540 H   0  0  0  0  0  0  0  0  0  0  0  0
   23.8283   16.8056    2.4280 H   0  0  0  0  0  0  0  0  0  0  0  0
   32.4040   14.1711    5.5161 H   0  0  0  0  0  0  0  0  0  0  0  0
   32.0937   12.4632    5.8830 H   0  0  0  0  0  0  0  0  0  0  0  0
   31.5197   13.7175    6.9965 H   0  0  0  0  0  0  0  0  0  0  0  0
   23.7061   15.9764   10.1089 H   0  0  0  0  0  0  0  0  0  0  0  0
   20.7315   15.8992    9.5276 H   0  0  0  0  0  0  0  0  0  0  0  0
   23.9674   14.6046    7.6533 H   0  0  0  0  0  0  0  0  0  0  0  0
   25.5974   16.9587    7.5138 H   0  0  0  0  0  0  0  0  0  0  0  0
   22.3737   15.3559    8.4116 H   0  0  0  0  0  0  0  0  0  0  0  0
   26.6561   15.0871    6.4227 H   0  0  0  0  0  0  0  0  0  0  0  0
   25.9779   19.3697   12.5450 H   0  0  0  0  0  0  0  0  0  0  0  0
   17.8840   14.5998    5.2202 H   0  0  0  0  0  0  0  0  0  0  0  0
   25.9696    9.7111    7.7847 H   0  0  0  0  0  0  0  0  0  0  0  0
   25.0628   17.0822   12.0999 H   0  0  0  0  0  0  0  0  0  0  0  0
   17.8325   14.8178    7.7052 H   0  0  0  0  0  0  0  0  0  0  0  0
   23.9689   11.0939    8.3997 H   0  0  0  0  0  0  0  0  0  0  0  0
   26.4588   20.9419   10.6540 H   0  0  0  0  0  0  0  0  0  0  0  0
   19.9540   15.1143    3.9444 H   0  0  0  0  0  0  0  0  0  0  0  0
   27.9222   10.7404    6.6422 H   0  0  0  0  0  0  0  0  0  0  0  0
   27.3161   20.5074    4.8081 H   0  0  0  0  0  0  0  0  0  0  0  0
   26.6485   21.9312    3.9810 H   0  0  0  0  0  0  0  0  0  0  0  0
   27.7623   19.0947    1.7739 H   0  0  0  0  0  0  0  0  0  0  0  0
   28.3510   19.1572    3.4494 H   0  0  0  0  0  0  0  0  0  0  0  0
   24.5210   21.5599    5.3986 H   0  0  0  0  0  0  0  0  0  0  0  0
   25.9696   22.2506    6.1587 H   0  0  0  0  0  0  0  0  0  0  0  0
   29.9812   18.1189    1.8651 H   0  0  0  0  0  0  0  0  0  0  0  0
   28.8109   16.8218    1.5318 H   0  0  0  0  0  0  0  0  0  0  0  0
   26.1758   20.2575    2.4749 H   0  0  0  0  0  0  0  0  0  0  0  0
   24.6503   20.4275    3.3420 H   0  0  0  0  0  0  0  0  0  0  0  0
   26.9982   17.0439    3.8664 H   0  0  0  0  0  0  0  0  0  0  0  0
   26.2631   17.2877    2.2713 H   0  0  0  0  0  0  0  0  0  0  0  0
   24.9818   19.4700    6.5857 H   0  0  0  0  0  0  0  0  0  0  0  0
   30.3100   17.2734    4.0512 H   0  0  0  0  0  0  0  0  0  0  0  0
   27.8479   15.4124    5.6197 H   0  0  0  0  0  0  0  0  0  0  0  0
   22.0145   17.1848    4.9851 H   0  0  0  0  0  0  0  0  0  0  0  0
   30.6063   13.2439    4.1349 H   0  0  0  0  0  0  0  0  0  0  0  0
   27.7101   13.3307    4.8364 H   0  0  0  0  0  0  0  0  0  0  0  0
   30.2719   15.7201    5.5843 H   0  0  0  0  0  0  0  0  0  0  0  0
   23.9040   14.5023    1.6707 H   0  0  0  0  0  0  0  0  0  0  0  0
   24.5071   13.9652    3.2531 H   0  0  0  0  0  0  0  0  0  0  0  0
   25.4752   15.0735    2.2556 H   0  0  0  0  0  0  0  0  0  0  0  0
   23.5682   16.6458    6.3953 H   0  0  0  0  0  0  0  0  0  0  0  0
   28.7393   14.9506    7.0286 H   0  0  0  0  0  0  0  0  0  0  0  0
  1  3  2  0  0  0  0
  1  4  1  0  0  0  0
  1 49  1  0  0  0  0
  2  4  1  0  0  0  0
  2 36  1  0  0  0  0
  2 52  1  0  0  0  0
  2 95  1  0  0  0  0
  4  5  1  0  0  0  0
  4 53  1  1  0  0  0
  5 50  1  0  0  0  0
  5 51  1  0  0  0  0
  5 54  1  6  0  0  0
  6 46  1  0  0  0  0
  6 55  1  0  0  0  0
  6 56  1  0  0  0  0
  6 57  1  0  0  0  0
  7 34  2  0  0  0  0
  8 35  2  0  0  0  0
  9 37  1  0  0  0  0
  9 58  1  0  0  0  0
 10 38  1  0  0  0  0
 10 59  1  0  0  0  0
 11 39  1  0  0  0  0
 11 60  1  0  0  0  0
 12 40  1  0  0  0  0
 12 61  1  0  0  0  0
 13 41  1  0  0  0  0
 13 62  1  0  0  0  0
 14 42  1  0  0  0  0
 14 63  1  0  0  0  0
 15 18  2  0  0  0  0
 15 21  1  0  0  0  0
 15 64  1  0  0  0  0
 16 19  2  0  0  0  0
 16 22  1  0  0  0  0
 16 65  1  0  0  0  0
 17 20  2  0  0  0  0
 17 23  1  0  0  0  0
 17 66  1  0  0  0  0
 18 37  1  0  0  0  0
 18 67  1  0  0  0  0
 19 38  1  0  0  0  0
 19 68  1  0  0  0  0
 20 39  1  0  0  0  0
 20 69  1  0  0  0  0
 21 43  2  0  0  0  0
 21 70  1  0  0  0  0
 22 44  2  0  0  0  0
 22 71  1  0  0  0  0
 23 45  2  0  0  0  0
 23 72  1  0  0  0  0
 24 26  1  0  0  0  0
 24 28  1  0  0  0  0
 24 73  1  0  0  0  0
 24 74  1  0  0  0  0
 25 27  1  0  0  0  0
 25 29  1  0  0  0  0
 25 75  1  0  0  0  0
 25 76  1  0  0  0  0
 26 30  1  0  0  0  0
 26 77  1  0  0  0  0
 26 78  1  0  0  0  0
 27 31  1  0  0  0  0
 27 79  1  0  0  0  0
 27 80  1  0  0  0  0
 28 49  1  0  0  0  0
 28 81  1  0  0  0  0
 28 82  1  0  0  0  0
 29 49  1  0  0  0  0
 29 83  1  0  0  0  0
 29 84  1  0  0  0  0
 30 34  1  0  0  0  0
 30 85  1  0  0  0  0
 31 35  1  0  0  0  0
 31 86  1  0  0  0  0
 32 47  1  0  0  0  0
 32 48  1  0  0  0  0
 32 87  1  0  0  0  0
 32 96  1  0  0  0  0
 33 46  1  0  0  0  0
 33 47  1  0  0  0  0
 34 43  1  0  0  0  0
 35 48  1  0  0  0  0
 36 44  1  0  0  0  0
 36 50  1  0  0  0  0
 36 88  1  6  0  0  0
 37 40  2  0  0  0  0
 38 41  2  0  0  0  0
 39 42  2  0  0  0  0
 40 43  1  0  0  0  0
 41 44  1  0  0  0  0
 42 45  1  0  0  0  0
 45 47  1  0  0  0  0
 46 48  1  0  0  0  0
 46 89  1  6  0  0  0
 47 90  1  6  0  0  0
 48 91  1  1  0  0  0
 51 92  1  0  0  0  0
 51 93  1  0  0  0  0
 51 94  1  0  0  0  0
M  CHG  2   2   1  32   1
M  END
$$$$
