VHA
 OpenBabel04091916233D

 48 51  0  0  0  0  0  0  0  0999 V2000
   10.6572    0.6506   15.0815 C   0  0  0  0  0  0  0  0  0  0  0  0
    9.7268    0.7852   14.0217 C   0  0  0  0  0  0  0  0  0  0  0  0
    9.0266   -0.3540   13.5855 C   0  0  0  0  0  0  0  0  0  0  0  0
    8.0337   -0.3058   12.4558 C   0  0  0  0  0  0  0  0  0  0  0  0
    9.2717   -1.5765   14.2288 C   0  0  0  0  0  0  0  0  0  0  0  0
   10.2051   -1.6638   15.2812 C   0  0  0  0  0  0  0  0  0  0  0  0
   10.9347   -0.5600   15.7091 C   0  0  0  0  0  0  0  0  0  0  0  0
   11.8906   -0.6871   16.7109 O   0  0  0  0  0  0  0  0  0  0  0  0
   12.6385    0.5232   17.0037 C   0  0  0  0  0  0  0  0  0  0  0  0
   13.8749    0.3292   17.8980 C   0  0  0  0  0  0  0  0  0  0  0  0
   14.6378    1.6476   18.1677 C   0  0  0  0  0  0  0  0  0  0  0  0
   15.2937    2.2126   16.9057 C   0  0  0  0  0  0  0  0  0  0  0  0
   14.2786    3.0106   16.2918 O   0  0  0  0  0  0  0  0  0  0  0  0
   14.4601    3.4236   15.0112 C   0  0  0  0  0  0  0  0  0  0  0  0
   13.3338    3.9871   14.4098 C   0  0  0  0  0  0  0  0  0  0  0  0
   15.6567    3.3462   14.3003 C   0  0  0  0  0  0  0  0  0  0  0  0
   15.7134    3.8049   12.9864 C   0  0  0  0  0  0  0  0  0  0  0  0
   14.5875    4.3657   12.3884 C   0  0  0  0  0  0  0  0  0  0  0  0
   13.3817    4.4391   13.0878 C   0  0  0  0  0  0  0  0  0  0  0  0
   11.9828    5.1465   12.2465 S   0  0  0  0  0  0  0  0  0  0  0  0
   10.6155    4.0853   12.6525 C   0  0  0  0  0  0  0  0  0  0  0  0
    9.3965    4.6610   12.5253 N   0  0  0  0  0  0  0  0  0  0  0  0
   10.7587    2.7914   13.0610 C   0  0  0  0  0  0  0  0  0  0  0  0
    9.6110    2.1216   13.4161 C   0  0  0  0  0  0  0  0  0  0  0  0
    8.3940    2.6749   13.3498 N   0  0  0  0  0  0  0  0  0  0  0  0
    8.3352    3.9192   12.8827 C   0  0  0  0  0  0  0  0  0  0  0  0
    7.1186    4.5032   12.7606 N   0  0  0  0  0  0  0  0  0  0  0  0
   11.1684    1.5542   15.3973 H   0  0  0  0  0  0  0  0  0  0  0  0
    7.5980   -1.2954   12.2729 H   0  0  0  0  0  0  0  0  0  0  0  0
    8.5084    0.0188   11.5224 H   0  0  0  0  0  0  0  0  0  0  0  0
    7.2064    0.3691   12.6965 H   0  0  0  0  0  0  0  0  0  0  0  0
    8.7411   -2.4713   13.9092 H   0  0  0  0  0  0  0  0  0  0  0  0
   10.3509   -2.6346   15.7637 H   0  0  0  0  0  0  0  0  0  0  0  0
   11.9686    1.2352   17.5025 H   0  0  0  0  0  0  0  0  0  0  0  0
   13.0012    0.9355   16.0592 H   0  0  0  0  0  0  0  0  0  0  0  0
   14.5624   -0.3869   17.4333 H   0  0  0  0  0  0  0  0  0  0  0  0
   13.5726   -0.0997   18.8589 H   0  0  0  0  0  0  0  0  0  0  0  0
   15.4053    1.4751   18.9311 H   0  0  0  0  0  0  0  0  0  0  0  0
   13.9378    2.3931   18.5698 H   0  0  0  0  0  0  0  0  0  0  0  0
   15.6340    1.3972   16.2540 H   0  0  0  0  0  0  0  0  0  0  0  0
   16.1541    2.8426   17.1660 H   0  0  0  0  0  0  0  0  0  0  0  0
   12.4097    4.0569   14.9826 H   0  0  0  0  0  0  0  0  0  0  0  0
   16.5508    2.9515   14.7602 H   0  0  0  0  0  0  0  0  0  0  0  0
   16.6444    3.7360   12.4307 H   0  0  0  0  0  0  0  0  0  0  0  0
   14.6528    4.7602   11.3772 H   0  0  0  0  0  0  0  0  0  0  0  0
   11.7280    2.3087   13.1576 H   0  0  0  0  0  0  0  0  0  0  0  0
    7.0667    5.4492   12.4231 H   0  0  0  0  0  0  0  0  0  0  0  0
    6.3276    4.0018   13.1238 H   0  0  0  0  0  0  0  0  0  0  0  0
  1  2  2  0  0  0  0
  1  7  1  0  0  0  0
  1 28  1  0  0  0  0
  2  3  1  0  0  0  0
  2 24  1  0  0  0  0
  3  4  1  0  0  0  0
  3  5  2  0  0  0  0
  4 29  1  0  0  0  0
  4 30  1  0  0  0  0
  4 31  1  0  0  0  0
  5  6  1  0  0  0  0
  5 32  1  0  0  0  0
  6  7  2  0  0  0  0
  6 33  1  0  0  0  0
  7  8  1  0  0  0  0
  8  9  1  0  0  0  0
  9 10  1  0  0  0  0
  9 34  1  0  0  0  0
  9 35  1  0  0  0  0
 10 11  1  0  0  0  0
 10 36  1  0  0  0  0
 10 37  1  0  0  0  0
 11 12  1  0  0  0  0
 11 38  1  0  0  0  0
 11 39  1  0  0  0  0
 12 13  1  0  0  0  0
 12 40  1  0  0  0  0
 12 41  1  0  0  0  0
 13 14  1  0  0  0  0
 14 15  2  0  0  0  0
 14 16  1  0  0  0  0
 15 19  1  0  0  0  0
 15 42  1  0  0  0  0
 16 17  2  0  0  0  0
 16 43  1  0  0  0  0
 17 18  1  0  0  0  0
 17 44  1  0  0  0  0
 18 19  2  0  0  0  0
 18 45  1  0  0  0  0
 19 20  1  0  0  0  0
 20 21  1  0  0  0  0
 21 22  2  0  0  0  0
 21 23  1  0  0  0  0
 22 26  1  0  0  0  0
 23 24  2  0  0  0  0
 23 46  1  0  0  0  0
 24 25  1  0  0  0  0
 25 26  2  0  0  0  0
 26 27  1  0  0  0  0
 27 47  1  0  0  0  0
 27 48  1  0  0  0  0
M  END
$$$$
