VHC
 OpenBabel04091916243D

 51 54  0  0  0  0  0  0  0  0999 V2000
   10.5553   -3.0633   15.3236 C   0  0  0  0  0  0  0  0  0  0  0  0
   10.3615   -1.6417   14.8821 C   0  0  0  0  0  0  0  0  0  0  0  0
    9.4567   -1.3952   13.8276 C   0  0  0  0  0  0  0  0  0  0  0  0
    9.2281   -0.1016   13.3281 C   0  0  0  0  0  0  0  0  0  0  0  0
    8.2488    0.0716   12.1939 C   0  0  0  0  0  0  0  0  0  0  0  0
    9.9460    0.9744   13.8723 C   0  0  0  0  0  0  0  0  0  0  0  0
   10.8612    0.7197   14.9201 C   0  0  0  0  0  0  0  0  0  0  0  0
   11.0609   -0.5614   15.4498 C   0  0  0  0  0  0  0  0  0  0  0  0
   11.9692   -0.7040   16.6479 C   0  0  0  0  0  0  0  0  0  0  0  0
   11.7029   -1.4544   17.5575 O   0  0  0  0  0  0  0  0  0  0  0  0
   13.0967    0.0961   16.6191 N   0  0  0  0  0  0  0  0  0  0  0  0
   14.1038    0.1041   17.6726 C   0  0  0  0  0  0  0  0  0  0  0  0
   14.6695    1.4972   17.9616 C   0  0  0  0  0  0  0  0  0  0  0  0
   15.4575    2.0479   16.7723 C   0  0  0  0  0  0  0  0  0  0  0  0
   14.4252    2.5255   15.9129 O   0  0  0  0  0  0  0  0  0  0  0  0
   14.7077    3.1302   14.7396 C   0  0  0  0  0  0  0  0  0  0  0  0
   13.6221    3.8093   14.1890 C   0  0  0  0  0  0  0  0  0  0  0  0
   15.9080    3.0861   14.0524 C   0  0  0  0  0  0  0  0  0  0  0  0
   16.0077    3.7085   12.8038 C   0  0  0  0  0  0  0  0  0  0  0  0
   14.9231    4.4002   12.2611 C   0  0  0  0  0  0  0  0  0  0  0  0
   13.7095    4.4314   12.9420 C   0  0  0  0  0  0  0  0  0  0  0  0
   12.3308    5.2893   12.2091 S   0  0  0  0  0  0  0  0  0  0  0  0
   10.9157    4.3051   12.6500 C   0  0  0  0  0  0  0  0  0  0  0  0
    9.7397    4.9601   12.6791 N   0  0  0  0  0  0  0  0  0  0  0  0
   11.0101    2.9666   12.9308 C   0  0  0  0  0  0  0  0  0  0  0  0
    9.8662    2.3509   13.3696 C   0  0  0  0  0  0  0  0  0  0  0  0
    8.6746    2.9825   13.4056 N   0  0  0  0  0  0  0  0  0  0  0  0
    8.6554    4.2675   13.0197 C   0  0  0  0  0  0  0  0  0  0  0  0
    7.4469    4.8938   12.9724 N   0  0  0  0  0  0  0  0  0  0  0  0
    9.9090   -3.7407   14.7511 H   0  0  0  0  0  0  0  0  0  0  0  0
   10.2980   -3.1806   16.3777 H   0  0  0  0  0  0  0  0  0  0  0  0
   11.5899   -3.3773   15.1562 H   0  0  0  0  0  0  0  0  0  0  0  0
    8.9197   -2.2363   13.3878 H   0  0  0  0  0  0  0  0  0  0  0  0
    7.7912   -0.8876   11.9218 H   0  0  0  0  0  0  0  0  0  0  0  0
    8.7540    0.4622   11.3048 H   0  0  0  0  0  0  0  0  0  0  0  0
    7.4402    0.7507   12.4797 H   0  0  0  0  0  0  0  0  0  0  0  0
   11.4085    1.5670   15.3353 H   0  0  0  0  0  0  0  0  0  0  0  0
   13.2411    0.7168   15.8291 H   0  0  0  0  0  0  0  0  0  0  0  0
   14.9190   -0.5612   17.3610 H   0  0  0  0  0  0  0  0  0  0  0  0
   13.6657   -0.3064   18.5899 H   0  0  0  0  0  0  0  0  0  0  0  0
   15.3077    1.4496   18.8489 H   0  0  0  0  0  0  0  0  0  0  0  0
   13.8296    2.1735   18.1777 H   0  0  0  0  0  0  0  0  0  0  0  0
   16.0621    1.2638   16.2988 H   0  0  0  0  0  0  0  0  0  0  0  0
   16.1175    2.8667   17.0884 H   0  0  0  0  0  0  0  0  0  0  0  0
   12.6884    3.8370   14.7465 H   0  0  0  0  0  0  0  0  0  0  0  0
   16.7703    2.5721   14.4580 H   0  0  0  0  0  0  0  0  0  0  0  0
   16.9370    3.6568   12.2447 H   0  0  0  0  0  0  0  0  0  0  0  0
   15.0339    4.9300   11.3169 H   0  0  0  0  0  0  0  0  0  0  0  0
   11.9416    2.4102   12.8832 H   0  0  0  0  0  0  0  0  0  0  0  0
    7.3983    5.8589   12.6724 H   0  0  0  0  0  0  0  0  0  0  0  0
    6.6209    4.3760   13.2268 H   0  0  0  0  0  0  0  0  0  0  0  0
  1  2  1  0  0  0  0
  1 30  1  0  0  0  0
  1 31  1  0  0  0  0
  1 32  1  0  0  0  0
  2  3  2  0  0  0  0
  2  8  1  0  0  0  0
  3  4  1  0  0  0  0
  3 33  1  0  0  0  0
  4  5  1  0  0  0  0
  4  6  2  0  0  0  0
  5 34  1  0  0  0  0
  5 35  1  0  0  0  0
  5 36  1  0  0  0  0
  6  7  1  0  0  0  0
  6 26  1  0  0  0  0
  7  8  2  0  0  0  0
  7 37  1  0  0  0  0
  8  9  1  0  0  0  0
  9 10  2  0  0  0  0
  9 11  1  0  0  0  0
 11 12  1  0  0  0  0
 11 38  1  0  0  0  0
 12 13  1  0  0  0  0
 12 39  1  0  0  0  0
 12 40  1  0  0  0  0
 13 14  1  0  0  0  0
 13 41  1  0  0  0  0
 13 42  1  0  0  0  0
 14 15  1  0  0  0  0
 14 43  1  0  0  0  0
 14 44  1  0  0  0  0
 15 16  1  0  0  0  0
 16 17  2  0  0  0  0
 16 18  1  0  0  0  0
 17 21  1  0  0  0  0
 17 45  1  0  0  0  0
 18 19  2  0  0  0  0
 18 46  1  0  0  0  0
 19 20  1  0  0  0  0
 19 47  1  0  0  0  0
 20 21  2  0  0  0  0
 20 48  1  0  0  0  0
 21 22  1  0  0  0  0
 22 23  1  0  0  0  0
 23 24  2  0  0  0  0
 23 25  1  0  0  0  0
 24 28  1  0  0  0  0
 25 26  2  0  0  0  0
 25 49  1  0  0  0  0
 26 27  1  0  0  0  0
 27 28  2  0  0  0  0
 28 29  1  0  0  0  0
 29 50  1  0  0  0  0
 29 51  1  0  0  0  0
M  END
$$$$
