VHE
 OpenBabel04091916243D

 50 52  0  0  0  0  0  0  0  0999 V2000
  -11.7377   -5.3137  -10.6811 C   0  0  0  0  0  0  0  0  0  0  0  0
  -10.6364   -6.0044  -11.2155 C   0  0  0  0  0  0  0  0  0  0  0  0
   -9.3462   -5.7610  -10.6953 C   0  0  0  0  0  0  0  0  0  0  0  0
   -9.1170   -4.8381   -9.6624 C   0  0  0  0  0  0  0  0  0  0  0  0
  -10.2176   -4.1584   -9.1270 C   0  0  0  0  0  0  0  0  0  0  0  0
  -11.5045   -4.4195   -9.6189 C   0  0  0  0  0  0  0  0  0  0  0  0
  -10.1062   -3.1390   -8.0460 C   0  0  0  0  0  0  0  0  0  0  0  0
   -7.7152   -4.5848   -9.1868 C   0  0  0  0  0  0  0  0  0  0  0  0
   -9.4285   -3.3334   -7.0430 O   0  0  0  0  0  0  0  0  0  0  0  0
  -10.8465   -1.9954   -8.2754 N   0  0  0  0  0  0  0  0  0  0  0  0
  -10.7508   -6.9834  -12.3544 C   0  0  0  0  0  0  0  0  0  0  0  0
  -13.1070   -5.4055  -11.2109 C   0  0  0  0  0  0  0  0  0  0  0  0
  -13.7607   -4.2655  -11.6293 C   0  0  0  0  0  0  0  0  0  0  0  0
  -15.0697   -4.4098  -12.0112 C   0  0  0  0  0  0  0  0  0  0  0  0
  -15.6733   -5.6095  -12.0404 N   0  0  0  0  0  0  0  0  0  0  0  0
  -14.9548   -6.6661  -11.6531 C   0  0  0  0  0  0  0  0  0  0  0  0
  -13.6958   -6.6130  -11.2131 N   0  0  0  0  0  0  0  0  0  0  0  0
  -15.5516   -7.8904  -11.7014 N   0  0  0  0  0  0  0  0  0  0  0  0
  -10.8725   -0.8951   -7.3355 C   0  0  0  0  0  0  0  0  0  0  0  0
  -11.9953    0.0971   -7.6491 C   0  0  0  0  0  0  0  0  0  0  0  0
  -13.3779   -0.4016   -7.2232 C   0  0  0  0  0  0  0  0  0  0  0  0
  -14.0091   -1.2884   -8.1850 N   0  0  0  0  0  0  0  0  0  0  0  0
  -14.8341   -0.8091   -9.1816 C   0  0  0  0  0  0  0  0  0  0  0  0
  -15.5633   -1.8833   -9.9622 C   0  0  0  0  0  0  0  0  0  0  0  0
  -14.9804    0.3849   -9.4202 O   0  0  0  0  0  0  0  0  0  0  0  0
  -15.3950   -1.6451  -11.4585 C   0  0  0  0  0  0  0  0  0  0  0  0
  -16.0850   -3.0136  -12.4719 S   0  0  0  0  0  0  0  0  0  0  0  0
   -8.5000   -6.2961  -11.1266 H   0  0  0  0  0  0  0  0  0  0  0  0
  -12.3508   -3.9143   -9.1597 H   0  0  0  0  0  0  0  0  0  0  0  0
   -6.9944   -5.2095   -9.7256 H   0  0  0  0  0  0  0  0  0  0  0  0
   -7.6143   -4.8220   -8.1243 H   0  0  0  0  0  0  0  0  0  0  0  0
   -7.4371   -3.5398   -9.3615 H   0  0  0  0  0  0  0  0  0  0  0  0
  -11.1140   -1.7962   -9.2308 H   0  0  0  0  0  0  0  0  0  0  0  0
  -11.7702   -7.1116  -12.7264 H   0  0  0  0  0  0  0  0  0  0  0  0
  -10.3891   -7.9678  -12.0379 H   0  0  0  0  0  0  0  0  0  0  0  0
  -10.1454   -6.6399  -13.1984 H   0  0  0  0  0  0  0  0  0  0  0  0
  -13.2536   -3.3130  -11.6262 H   0  0  0  0  0  0  0  0  0  0  0  0
  -16.4790   -7.9478  -12.0862 H   0  0  0  0  0  0  0  0  0  0  0  0
  -15.0010   -8.6946  -11.4565 H   0  0  0  0  0  0  0  0  0  0  0  0
   -9.9002   -0.3924   -7.3980 H   0  0  0  0  0  0  0  0  0  0  0  0
  -10.9680   -1.2942   -6.3195 H   0  0  0  0  0  0  0  0  0  0  0  0
  -11.9883    0.3577   -8.7137 H   0  0  0  0  0  0  0  0  0  0  0  0
  -11.7843    1.0164   -7.0915 H   0  0  0  0  0  0  0  0  0  0  0  0
  -14.0355    0.4614   -7.0750 H   0  0  0  0  0  0  0  0  0  0  0  0
  -13.3235   -0.9391   -6.2712 H   0  0  0  0  0  0  0  0  0  0  0  0
  -13.9681   -2.2818   -7.9960 H   0  0  0  0  0  0  0  0  0  0  0  0
  -16.6229   -1.8376   -9.6836 H   0  0  0  0  0  0  0  0  0  0  0  0
  -15.1904   -2.8666   -9.6620 H   0  0  0  0  0  0  0  0  0  0  0  0
  -14.3461   -1.4729  -11.7259 H   0  0  0  0  0  0  0  0  0  0  0  0
  -15.9256   -0.7318  -11.7512 H   0  0  0  0  0  0  0  0  0  0  0  0
  1  2  2  0  0  0  0
  1  6  1  0  0  0  0
  1 12  1  0  0  0  0
  2  3  1  0  0  0  0
  2 11  1  0  0  0  0
  3  4  2  0  0  0  0
  3 28  1  0  0  0  0
  4  5  1  0  0  0  0
  4  8  1  0  0  0  0
  5  6  2  0  0  0  0
  5  7  1  0  0  0  0
  6 29  1  0  0  0  0
  7  9  2  0  0  0  0
  7 10  1  0  0  0  0
  8 30  1  0  0  0  0
  8 31  1  0  0  0  0
  8 32  1  0  0  0  0
 10 19  1  0  0  0  0
 10 33  1  0  0  0  0
 11 34  1  0  0  0  0
 11 35  1  0  0  0  0
 11 36  1  0  0  0  0
 12 13  2  0  0  0  0
 12 17  1  0  0  0  0
 13 14  1  0  0  0  0
 13 37  1  0  0  0  0
 14 15  2  0  0  0  0
 14 27  1  0  0  0  0
 15 16  1  0  0  0  0
 16 17  2  0  0  0  0
 16 18  1  0  0  0  0
 18 38  1  0  0  0  0
 18 39  1  0  0  0  0
 19 20  1  0  0  0  0
 19 40  1  0  0  0  0
 19 41  1  0  0  0  0
 20 21  1  0  0  0  0
 20 42  1  0  0  0  0
 20 43  1  0  0  0  0
 21 22  1  0  0  0  0
 21 44  1  0  0  0  0
 21 45  1  0  0  0  0
 22 23  1  0  0  0  0
 22 46  1  0  0  0  0
 23 24  1  0  0  0  0
 23 25  2  0  0  0  0
 24 26  1  0  0  0  0
 24 47  1  0  0  0  0
 24 48  1  0  0  0  0
 26 27  1  0  0  0  0
 26 49  1  0  0  0  0
 26 50  1  0  0  0  0
M  END
$$$$
