VIB
 OpenBabel04091915013D

 35 36  0  0  0  0  0  0  0  0999 V2000
   37.0495  -25.2332   41.8130 C   0  0  0  0  0  0  0  0  0  0  0  0
   36.1511  -21.6835   44.8169 N   0  0  0  0  0  0  0  0  0  0  0  0
   33.1000  -21.9223   48.7803 C   0  0  0  0  0  0  0  0  0  0  0  0
   28.9907  -20.3699   48.9097 O   0  0  0  0  0  0  0  0  0  0  0  0
   29.4898  -20.3971   47.5837 C   0  0  0  0  0  0  0  0  0  0  0  0
   30.9245  -19.8851   47.6473 C   0  0  0  0  0  0  0  0  0  0  0  0
   32.9912  -21.9847   45.0944 C   0  0  0  0  0  0  0  0  0  0  0  0
   31.7930  -20.7830   45.1696 S   0  0  0  0  0  0  0  0  0  0  0  0
   31.8560  -20.7721   46.8748 C   0  0  0  0  0  0  0  0  0  0  0  0
   32.7710  -21.6732   47.3505 C   0  0  0  0  0  0  0  0  0  0  0  0
   33.4221  -22.3444   46.3098 N   0  3  0  0  0  0  0  0  0  0  0  0
   34.4895  -23.3435   46.5346 C   0  0  0  0  0  0  0  0  0  0  0  0
   35.9814  -23.0159   44.5268 C   0  0  0  0  0  0  0  0  0  0  0  0
   36.5525  -23.4573   43.4026 N   0  0  0  0  0  0  0  0  0  0  0  0
   36.3773  -24.7516   43.0644 C   0  0  0  0  0  0  0  0  0  0  0  0
   35.6329  -25.6180   43.7754 N   0  0  0  0  0  0  0  0  0  0  0  0
   35.0409  -25.1357   44.8788 C   0  0  0  0  0  0  0  0  0  0  0  0
   35.1659  -23.8254   45.2960 C   0  0  0  0  0  0  0  0  0  0  0  0
   37.6323  -24.4259   41.3570 H   0  0  0  0  0  0  0  0  0  0  0  0
   36.3049  -25.5672   41.0838 H   0  0  0  0  0  0  0  0  0  0  0  0
   37.7314  -26.0619   42.0290 H   0  0  0  0  0  0  0  0  0  0  0  0
   35.8662  -21.2329   45.6683 H   0  0  0  0  0  0  0  0  0  0  0  0
   36.8125  -21.1799   44.2293 H   0  0  0  0  0  0  0  0  0  0  0  0
   32.4470  -21.3274   49.4217 H   0  0  0  0  0  0  0  0  0  0  0  0
   34.1274  -21.6256   49.0112 H   0  0  0  0  0  0  0  0  0  0  0  0
   32.9396  -22.9638   49.0573 H   0  0  0  0  0  0  0  0  0  0  0  0
   28.0407  -20.6467   48.8824 H   0  0  0  0  0  0  0  0  0  0  0  0
   28.8837  -19.7573   46.9323 H   0  0  0  0  0  0  0  0  0  0  0  0
   29.4329  -21.4277   47.2164 H   0  0  0  0  0  0  0  0  0  0  0  0
   31.2342  -19.8502   48.7023 H   0  0  0  0  0  0  0  0  0  0  0  0
   30.9801  -18.8556   47.2931 H   0  0  0  0  0  0  0  0  0  0  0  0
   33.3532  -22.3443   44.1475 H   0  0  0  0  0  0  0  0  0  0  0  0
   34.0467  -24.1867   47.0746 H   0  0  0  0  0  0  0  0  0  0  0  0
   35.2488  -22.8924   47.1864 H   0  0  0  0  0  0  0  0  0  0  0  0
   34.4486  -25.8606   45.4369 H   0  0  0  0  0  0  0  0  0  0  0  0
  1 15  1  0  0  0  0
  1 19  1  0  0  0  0
  1 20  1  0  0  0  0
  1 21  1  0  0  0  0
  2 13  1  0  0  0  0
  2 22  1  0  0  0  0
  2 23  1  0  0  0  0
  3 10  1  0  0  0  0
  3 24  1  0  0  0  0
  3 25  1  0  0  0  0
  3 26  1  0  0  0  0
  4  5  1  0  0  0  0
  4 27  1  0  0  0  0
  5  6  1  0  0  0  0
  5 28  1  0  0  0  0
  5 29  1  0  0  0  0
  6  9  1  0  0  0  0
  6 30  1  0  0  0  0
  6 31  1  0  0  0  0
  7  8  1  0  0  0  0
  7 11  2  0  0  0  0
  7 32  1  0  0  0  0
  8  9  1  0  0  0  0
  9 10  2  0  0  0  0
 10 11  1  0  0  0  0
 11 12  1  0  0  0  0
 12 18  1  0  0  0  0
 12 33  1  0  0  0  0
 12 34  1  0  0  0  0
 13 14  2  0  0  0  0
 13 18  1  0  0  0  0
 14 15  1  0  0  0  0
 15 16  2  0  0  0  0
 16 17  1  0  0  0  0
 17 18  2  0  0  0  0
 17 35  1  0  0  0  0
M  CHG  1  11   1
M  END
$$$$
