VPU
 OpenBabel04091912473D

 38 38  0  0  1  0  0  0  0  0999 V2000
   -8.5716   18.5928   12.4646 C   0  0  0  0  0  0  0  0  0  0  0  0
   -7.6495   18.6319   13.6726 C   0  0  0  0  0  0  0  0  0  0  0  0
   -7.5102   17.2607   14.3421 C   0  0  0  0  0  0  0  0  0  0  0  0
   -6.0403   16.8968   14.5732 C   0  0  0  0  0  0  0  0  0  0  0  0
   -5.4582   16.2230   13.3530 C   0  0  0  0  0  0  0  0  0  0  0  0
   -6.0706   15.3427   12.7378 O   0  0  0  0  0  0  0  0  0  0  0  0
   -4.1629   16.5643   13.0417 N   0  0  0  0  0  0  0  0  0  0  0  0
   -3.5117   16.0105   11.8436 C   0  0  2  0  0  0  0  0  0  0  0  0
   -2.5584   14.8825   12.2370 C   0  0  1  0  0  0  0  0  0  0  0  0
   -3.2505   13.8281   12.9178 O   0  0  0  0  0  0  0  0  0  0  0  0
   -1.9312   14.3403   10.9564 C   0  0  2  0  0  0  0  0  0  0  0  0
   -1.1268   13.1970   11.2560 O   0  0  0  0  0  0  0  0  0  0  0  0
   -1.0445   15.4345   10.3690 C   0  0  1  0  0  0  0  0  0  0  0  0
   -0.5322   15.0179    8.9743 C   0  0  0  0  0  0  0  0  0  0  0  0
   -1.4285   15.4196    7.9496 O   0  0  0  0  0  0  0  0  0  0  0  0
   -1.6759   16.7506   10.3125 O   0  0  0  0  0  0  0  0  0  0  0  0
   -2.7483   17.0785   11.0625 C   0  0  0  0  0  0  0  0  0  0  0  0
   -3.1462   18.3051   11.0514 N   0  0  0  0  0  0  0  0  0  0  0  0
   -8.6479   19.5893   12.0189 H   0  0  0  0  0  0  0  0  0  0  0  0
   -9.5758   18.2637   12.7444 H   0  0  0  0  0  0  0  0  0  0  0  0
   -8.1809   17.9106   11.7029 H   0  0  0  0  0  0  0  0  0  0  0  0
   -8.0472   19.3463   14.4032 H   0  0  0  0  0  0  0  0  0  0  0  0
   -6.6748   19.0177   13.3530 H   0  0  0  0  0  0  0  0  0  0  0  0
   -8.0122   16.4853   13.7500 H   0  0  0  0  0  0  0  0  0  0  0  0
   -8.0313   17.2864   15.3065 H   0  0  0  0  0  0  0  0  0  0  0  0
   -5.9692   16.1780   15.3910 H   0  0  0  0  0  0  0  0  0  0  0  0
   -5.4531   17.7774   14.8697 H   0  0  0  0  0  0  0  0  0  0  0  0
   -3.7392   17.3801   13.4820 H   0  0  0  0  0  0  0  0  0  0  0  0
   -4.2934   15.6251   11.1768 H   0  0  0  0  0  0  0  0  0  0  0  0
   -1.7803   15.2432   12.9231 H   0  0  0  0  0  0  0  0  0  0  0  0
   -3.6898   14.2274   13.6896 H   0  0  0  0  0  0  0  0  0  0  0  0
   -2.7230   14.0493   10.2519 H   0  0  0  0  0  0  0  0  0  0  0  0
   -0.9493   12.7204   10.4281 H   0  0  0  0  0  0  0  0  0  0  0  0
   -0.1521   15.5307   11.0043 H   0  0  0  0  0  0  0  0  0  0  0  0
   -0.4097   13.9319    8.8907 H   0  0  0  0  0  0  0  0  0  0  0  0
    0.4515   15.4510    8.7659 H   0  0  0  0  0  0  0  0  0  0  0  0
   -1.3673   16.3918    7.8998 H   0  0  0  0  0  0  0  0  0  0  0  0
   -2.5429   18.8408   10.4216 H   0  0  0  0  0  0  0  0  0  0  0  0
  1  2  1  0  0  0  0
  1 19  1  0  0  0  0
  1 20  1  0  0  0  0
  1 21  1  0  0  0  0
  2  3  1  0  0  0  0
  2 22  1  0  0  0  0
  2 23  1  0  0  0  0
  3  4  1  0  0  0  0
  3 24  1  0  0  0  0
  3 25  1  0  0  0  0
  4  5  1  0  0  0  0
  4 26  1  0  0  0  0
  4 27  1  0  0  0  0
  5  6  2  0  0  0  0
  5  7  1  0  0  0  0
  7  8  1  0  0  0  0
  7 28  1  0  0  0  0
  8  9  1  0  0  0  0
  8 17  1  0  0  0  0
  8 29  1  6  0  0  0
  9 10  1  0  0  0  0
  9 11  1  0  0  0  0
  9 30  1  1  0  0  0
 10 31  1  0  0  0  0
 11 12  1  0  0  0  0
 11 13  1  0  0  0  0
 11 32  1  6  0  0  0
 12 33  1  0  0  0  0
 13 14  1  0  0  0  0
 13 16  1  0  0  0  0
 13 34  1  1  0  0  0
 14 15  1  0  0  0  0
 14 35  1  0  0  0  0
 14 36  1  0  0  0  0
 15 37  1  0  0  0  0
 16 17  1  0  0  0  0
 17 18  2  0  0  0  0
 18 38  1  0  0  0  0
M  END
$$$$
