VX2
 OpenBabel04091911023D

 44 47  0  0  0  0  0  0  0  0999 V2000
  -21.5312   39.2438   -0.7324 C   0  0  0  0  0  0  0  0  0  0  0  0
  -16.1728   34.6458    0.8622 N   0  0  0  0  0  0  0  0  0  0  0  0
  -20.6098   39.2076    1.6194 C   0  0  0  0  0  0  0  0  0  0  0  0
  -19.7311   38.7041    2.5773 C   0  0  0  0  0  0  0  0  0  0  0  0
  -18.8157   37.7062    2.2331 C   0  0  0  0  0  0  0  0  0  0  0  0
  -16.3414   34.8204   -0.4273 C   0  0  0  0  0  0  0  0  0  0  0  0
  -15.7012   34.2597   -1.5484 C   0  0  0  0  0  0  0  0  0  0  0  0
  -17.2120   35.6152   -2.9077 C   0  0  0  0  0  0  0  0  0  0  0  0
  -18.7665   36.8111   -4.4594 C   0  0  0  0  0  0  0  0  0  0  0  0
  -20.5865   38.7032    0.3125 C   0  0  0  0  0  0  0  0  0  0  0  0
  -19.6588   37.6982   -0.0149 C   0  0  0  0  0  0  0  0  0  0  0  0
  -16.0856   34.6353   -2.7735 C   0  0  0  0  0  0  0  0  0  0  0  0
  -19.4888   39.2111   -4.7601 C   0  0  0  0  0  0  0  0  0  0  0  0
  -17.0471   35.4849    1.5094 N   0  0  0  0  0  0  0  0  0  0  0  0
  -22.8328   39.2035   -0.3362 F   0  0  0  0  0  0  0  0  0  0  0  0
  -21.4836   38.5644   -1.9131 F   0  0  0  0  0  0  0  0  0  0  0  0
  -21.2732   40.5444   -1.0431 F   0  0  0  0  0  0  0  0  0  0  0  0
  -18.7523   37.1917    0.9258 C   0  0  0  0  0  0  0  0  0  0  0  0
  -17.7496   36.1599    0.6080 C   0  0  0  0  0  0  0  0  0  0  0  0
  -17.6352   35.9385   -4.1766 N   0  0  0  0  0  0  0  0  0  0  0  0
  -18.3340   38.2793   -4.4004 C   0  0  0  0  0  0  0  0  0  0  0  0
  -20.0914   38.8669   -6.1188 C   0  0  0  0  0  0  0  0  0  0  0  0
  -20.5058   37.4001   -6.1969 C   0  0  0  0  0  0  0  0  0  0  0  0
  -19.3503   36.4680   -5.8371 C   0  0  0  0  0  0  0  0  0  0  0  0
  -17.8033   36.1548   -1.8759 N   0  0  0  0  0  0  0  0  0  0  0  0
  -17.3386   35.7450   -0.6539 N   0  3  0  0  0  0  0  0  0  0  0  0
  -21.3151   39.9900    1.8953 H   0  0  0  0  0  0  0  0  0  0  0  0
  -19.7549   39.0909    3.5944 H   0  0  0  0  0  0  0  0  0  0  0  0
  -18.1378   37.3315    2.9999 H   0  0  0  0  0  0  0  0  0  0  0  0
  -14.9066   33.5398   -1.3941 H   0  0  0  0  0  0  0  0  0  0  0  0
  -19.5548   36.6369   -3.7157 H   0  0  0  0  0  0  0  0  0  0  0  0
  -19.6663   37.3131   -1.0327 H   0  0  0  0  0  0  0  0  0  0  0  0
  -15.6281   34.2387   -3.6689 H   0  0  0  0  0  0  0  0  0  0  0  0
  -19.1397   40.2495   -4.7613 H   0  0  0  0  0  0  0  0  0  0  0  0
  -20.2665   39.1382   -3.9913 H   0  0  0  0  0  0  0  0  0  0  0  0
  -17.0550   35.6851   -4.9677 H   0  0  0  0  0  0  0  0  0  0  0  0
  -17.4953   38.4537   -5.0870 H   0  0  0  0  0  0  0  0  0  0  0  0
  -17.9701   38.5290   -3.3969 H   0  0  0  0  0  0  0  0  0  0  0  0
  -19.3592   39.0817   -6.9067 H   0  0  0  0  0  0  0  0  0  0  0  0
  -20.9614   39.5059   -6.3075 H   0  0  0  0  0  0  0  0  0  0  0  0
  -20.8661   37.1718   -7.2063 H   0  0  0  0  0  0  0  0  0  0  0  0
  -21.3436   37.2214   -5.5113 H   0  0  0  0  0  0  0  0  0  0  0  0
  -19.7029   35.4292   -5.8465 H   0  0  0  0  0  0  0  0  0  0  0  0
  -18.5726   36.5386   -6.6090 H   0  0  0  0  0  0  0  0  0  0  0  0
  1 10  1  0  0  0  0
  1 15  1  0  0  0  0
  1 16  1  0  0  0  0
  1 17  1  0  0  0  0
  2  6  1  0  0  0  0
  2 14  1  0  0  0  0
  3  4  2  0  0  0  0
  3 10  1  0  0  0  0
  3 27  1  0  0  0  0
  4  5  1  0  0  0  0
  4 28  1  0  0  0  0
  5 18  2  0  0  0  0
  5 29  1  0  0  0  0
  6  7  2  0  0  0  0
  6 26  1  0  0  0  0
  7 12  1  0  0  0  0
  7 30  1  0  0  0  0
  8 12  2  0  0  0  0
  8 20  1  0  0  0  0
  8 25  1  0  0  0  0
  9 20  1  0  0  0  0
  9 21  1  0  0  0  0
  9 24  1  0  0  0  0
  9 31  1  0  0  0  0
 10 11  2  0  0  0  0
 11 18  1  0  0  0  0
 11 32  1  0  0  0  0
 12 33  1  0  0  0  0
 13 21  1  0  0  0  0
 13 22  1  0  0  0  0
 13 34  1  0  0  0  0
 13 35  1  0  0  0  0
 14 19  2  0  0  0  0
 18 19  1  0  0  0  0
 19 26  1  0  0  0  0
 20 36  1  0  0  0  0
 21 37  1  0  0  0  0
 21 38  1  0  0  0  0
 22 23  1  0  0  0  0
 22 39  1  0  0  0  0
 22 40  1  0  0  0  0
 23 24  1  0  0  0  0
 23 41  1  0  0  0  0
 23 42  1  0  0  0  0
 24 43  1  0  0  0  0
 24 44  1  0  0  0  0
 25 26  2  0  0  0  0
M  CHG  1  26   1
M  END
$$$$
