VX3
 OpenBabel04091911023D

 38 41  0  0  1  0  0  0  0  0999 V2000
  -16.3527   34.6889    1.2283 O   0  0  0  0  0  0  0  0  0  0  0  0
  -19.4663   37.6495   -0.9939 C   0  0  2  0  0  0  0  0  0  0  0  0
  -22.3560   39.8614   -1.9864 C   0  0  0  0  0  0  0  0  0  0  0  0
  -16.5958   35.4852    2.1955 C   0  0  0  0  0  0  0  0  0  0  0  0
  -16.0262   35.4736    3.3307 O   0  0  0  0  0  0  0  0  0  0  0  0
  -17.6484   36.5417    1.9537 C   0  0  2  0  0  0  0  0  0  0  0  0
  -18.2319   36.7360    0.6846 C   0  0  2  0  0  0  0  0  0  0  0  0
  -18.0147   36.0463   -0.4894 N   0  3  0  0  0  0  0  0  0  0  0  0
  -18.7592   36.5676   -1.5304 C   0  0  1  0  0  0  0  0  0  0  0  0
  -18.7202   35.9884   -2.8849 C   0  0  0  0  0  0  0  0  0  0  0  0
  -19.8780   35.9549   -3.6772 C   0  0  0  0  0  0  0  0  0  0  0  0
  -19.8468   35.4824   -4.9911 C   0  0  0  0  0  0  0  0  0  0  0  0
  -18.6561   35.0021   -5.5261 C   0  0  0  0  0  0  0  0  0  0  0  0
  -17.5014   34.9967   -4.7458 C   0  0  0  0  0  0  0  0  0  0  0  0
  -17.5311   35.4890   -3.4346 C   0  0  0  0  0  0  0  0  0  0  0  0
  -20.3089   38.5694   -1.7565 C   0  0  0  0  0  0  0  0  0  0  0  0
  -21.5755   38.9384   -1.2851 C   0  0  0  0  0  0  0  0  0  0  0  0
  -21.8878   40.4067   -3.1807 C   0  0  0  0  0  0  0  0  0  0  0  0
  -20.6360   40.0385   -3.6674 C   0  0  0  0  0  0  0  0  0  0  0  0
  -19.8456   39.1373   -2.9508 C   0  0  0  0  0  0  0  0  0  0  0  0
  -19.1611   37.7291    0.4066 C   0  0  1  0  0  0  0  0  0  0  0  0
  -19.5627   38.5820    1.4573 C   0  0  0  0  0  0  0  0  0  0  0  0
  -19.0316   38.4031    2.7360 C   0  0  0  0  0  0  0  0  0  0  0  0
  -18.0859   37.4062    2.9765 C   0  0  0  0  0  0  0  0  0  0  0  0
  -23.3257   40.1567   -1.5955 H   0  0  0  0  0  0  0  0  0  0  0  0
  -17.3749   35.2563   -0.5156 H   0  0  0  0  0  0  0  0  0  0  0  0
  -20.8221   36.3168   -3.2780 H   0  0  0  0  0  0  0  0  0  0  0  0
  -20.7536   35.4979   -5.5887 H   0  0  0  0  0  0  0  0  0  0  0  0
  -18.6294   34.6314   -6.5466 H   0  0  0  0  0  0  0  0  0  0  0  0
  -16.5700   34.6168   -5.1572 H   0  0  0  0  0  0  0  0  0  0  0  0
  -16.6096   35.4942   -2.8552 H   0  0  0  0  0  0  0  0  0  0  0  0
  -21.9605   38.5128   -0.3590 H   0  0  0  0  0  0  0  0  0  0  0  0
  -22.4940   41.1239   -3.7280 H   0  0  0  0  0  0  0  0  0  0  0  0
  -20.2636   40.4526   -4.5994 H   0  0  0  0  0  0  0  0  0  0  0  0
  -18.8617   38.8719   -3.3336 H   0  0  0  0  0  0  0  0  0  0  0  0
  -20.2758   39.3783    1.2759 H   0  0  0  0  0  0  0  0  0  0  0  0
  -19.3463   39.0525    3.5475 H   0  0  0  0  0  0  0  0  0  0  0  0
  -17.6647   37.2912    3.9714 H   0  0  0  0  0  0  0  0  0  0  0  0
  1  4  2  0  0  0  0
  2  9  1  0  0  0  0
  2 16  1  6  0  0  0
  2 21  1  0  0  0  0
  3 17  1  0  0  0  0
  3 18  1  0  0  0  0
  3 25  1  0  0  0  0
  4  5  1  0  0  0  0
  6  4  1  6  0  0  0
  6  7  1  0  0  0  0
  6 24  1  0  0  0  0
  7  8  1  6  0  0  0
  7 21  1  0  0  0  0
  8  9  1  0  0  0  0
  8 26  1  0  0  0  0
  9 10  1  1  0  0  0
 10 11  1  0  0  0  0
 10 15  1  0  0  0  0
 11 12  1  0  0  0  0
 11 27  1  0  0  0  0
 12 13  1  0  0  0  0
 12 28  1  0  0  0  0
 13 14  1  0  0  0  0
 13 29  1  0  0  0  0
 14 15  1  0  0  0  0
 14 30  1  0  0  0  0
 15 31  1  0  0  0  0
 16 17  1  0  0  0  0
 16 20  1  0  0  0  0
 17 32  1  0  0  0  0
 18 19  1  0  0  0  0
 18 33  1  0  0  0  0
 19 20  1  0  0  0  0
 19 34  1  0  0  0  0
 20 35  1  0  0  0  0
 21 22  1  6  0  0  0
 22 23  1  0  0  0  0
 22 36  1  0  0  0  0
 23 24  1  0  0  0  0
 23 37  1  0  0  0  0
 24 38  1  0  0  0  0
M  CHG  1   8   1
M  END
$$$$
