VZ5
 OpenBabel04091914183D

 55 58  0  0  1  0  0  0  0  0999 V2000
   -3.5604    1.2899   13.8242 C   0  0  0  0  0  0  0  0  0  0  0  0
   -5.2562   -0.8162   15.8048 N   0  0  0  0  0  0  0  0  0  0  0  0
   -5.2097    0.3952   17.9700 O   0  0  0  0  0  0  0  0  0  0  0  0
   -5.5373    0.6519   16.5857 S   0  0  0  0  0  0  0  0  0  0  0  0
   -4.4111    2.0029   14.6621 C   0  0  0  0  0  0  0  0  0  0  0  0
   -6.8627    1.0650   16.2039 O   0  0  0  0  0  0  0  0  0  0  0  0
   -5.1568    3.0859   14.1750 C   0  0  0  0  0  0  0  0  0  0  0  0
   -4.4144    1.6792   15.9930 O   0  0  0  0  0  0  0  0  0  0  0  0
   -5.0287    3.3938   12.8146 C   0  0  0  0  0  0  0  0  0  0  0  0
   -4.1281    2.7323   11.9596 C   0  0  0  0  0  0  0  0  0  0  0  0
   -3.4072    1.6328   12.4745 C   0  0  0  0  0  0  0  0  0  0  0  0
   -2.4420    0.8255   11.6457 C   0  0  0  0  0  0  0  0  0  0  0  0
   -2.2391    1.3071   10.2099 C   0  0  0  0  0  0  0  0  0  0  0  0
   -2.4619    2.8152   10.1049 C   0  0  2  0  0  0  0  0  0  0  0  0
   -3.9349    3.1211   10.4994 C   0  0  2  0  0  0  0  0  0  0  0  0
   -4.4272    4.5238   10.0252 C   0  0  0  0  0  0  0  0  0  0  0  0
   -3.3805    5.4967    9.4717 C   0  0  0  0  0  0  0  0  0  0  0  0
   -2.2006    4.8876    8.6951 C   0  0  1  0  0  0  0  0  0  0  0  0
   -2.2340    3.3485    8.7090 C   0  0  1  0  0  0  0  0  0  0  0  0
   -0.9974    2.9754    7.8981 C   0  0  0  0  0  0  0  0  0  0  0  0
   -0.9955    4.0457    6.7829 C   0  0  0  0  0  0  0  0  0  0  0  0
   -2.1247    5.0445    7.1605 C   0  0  2  0  0  0  0  0  0  0  0  0
   -1.8256    6.3511    6.7224 O   0  0  0  0  0  0  0  0  0  0  0  0
   -0.9300    5.5346    9.3255 C   0  0  0  0  0  0  0  0  0  0  0  0
   -6.0825    3.8968   15.0388 C   0  0  0  0  0  0  0  0  0  0  0  0
   -5.7517    5.3835   15.0714 C   0  0  0  0  0  0  0  0  0  0  0  0
   -2.9647    0.4709   14.2303 H   0  0  0  0  0  0  0  0  0  0  0  0
   -5.6196   -1.5770   16.3805 H   0  0  0  0  0  0  0  0  0  0  0  0
   -4.2799   -0.9387   15.5542 H   0  0  0  0  0  0  0  0  0  0  0  0
   -5.6637    4.1903   12.4303 H   0  0  0  0  0  0  0  0  0  0  0  0
   -2.7668   -0.2219   11.6225 H   0  0  0  0  0  0  0  0  0  0  0  0
   -1.4697    0.8554   12.1523 H   0  0  0  0  0  0  0  0  0  0  0  0
   -2.9333    0.7807    9.5416 H   0  0  0  0  0  0  0  0  0  0  0  0
   -1.2302    1.0331    9.8828 H   0  0  0  0  0  0  0  0  0  0  0  0
   -1.7745    3.3121   10.8032 H   0  0  0  0  0  0  0  0  0  0  0  0
   -4.5834    2.4170    9.9543 H   0  0  0  0  0  0  0  0  0  0  0  0
   -4.9534    5.0697   10.8135 H   0  0  0  0  0  0  0  0  0  0  0  0
   -5.1842    4.3715    9.2438 H   0  0  0  0  0  0  0  0  0  0  0  0
   -2.9895    6.0002   10.3698 H   0  0  0  0  0  0  0  0  0  0  0  0
   -3.8642    6.2964    8.9011 H   0  0  0  0  0  0  0  0  0  0  0  0
   -3.0896    2.9901    8.1071 H   0  0  0  0  0  0  0  0  0  0  0  0
   -1.0406    1.9604    7.4938 H   0  0  0  0  0  0  0  0  0  0  0  0
   -0.0887    3.0391    8.5115 H   0  0  0  0  0  0  0  0  0  0  0  0
   -1.1815    3.5951    5.8021 H   0  0  0  0  0  0  0  0  0  0  0  0
   -0.0211    4.5427    6.7220 H   0  0  0  0  0  0  0  0  0  0  0  0
   -3.0595    4.7298    6.6763 H   0  0  0  0  0  0  0  0  0  0  0  0
   -2.5764    6.9170    6.9706 H   0  0  0  0  0  0  0  0  0  0  0  0
   -0.8945    5.3785   10.4084 H   0  0  0  0  0  0  0  0  0  0  0  0
   -0.9353    6.6168    9.1464 H   0  0  0  0  0  0  0  0  0  0  0  0
    0.0136    5.1590    8.9248 H   0  0  0  0  0  0  0  0  0  0  0  0
   -6.0718    3.5422   16.0744 H   0  0  0  0  0  0  0  0  0  0  0  0
   -7.1097    3.7531   14.6731 H   0  0  0  0  0  0  0  0  0  0  0  0
   -6.4571    5.9072   15.7259 H   0  0  0  0  0  0  0  0  0  0  0  0
   -5.8175    5.8419   14.0803 H   0  0  0  0  0  0  0  0  0  0  0  0
   -4.7408    5.5500   15.4568 H   0  0  0  0  0  0  0  0  0  0  0  0
  1  5  2  0  0  0  0
  1 11  1  0  0  0  0
  1 27  1  0  0  0  0
  2  4  1  0  0  0  0
  2 28  1  0  0  0  0
  2 29  1  0  0  0  0
  3  4  2  0  0  0  0
  4  6  2  0  0  0  0
  4  8  1  0  0  0  0
  5  7  1  0  0  0  0
  5  8  1  0  0  0  0
  7  9  2  0  0  0  0
  7 25  1  0  0  0  0
  9 10  1  0  0  0  0
  9 30  1  0  0  0  0
 10 11  2  0  0  0  0
 10 15  1  0  0  0  0
 11 12  1  0  0  0  0
 12 13  1  0  0  0  0
 12 31  1  0  0  0  0
 12 32  1  0  0  0  0
 13 14  1  0  0  0  0
 13 33  1  0  0  0  0
 13 34  1  0  0  0  0
 14 15  1  0  0  0  0
 14 19  1  0  0  0  0
 14 35  1  1  0  0  0
 15 16  1  0  0  0  0
 15 36  1  6  0  0  0
 16 17  1  0  0  0  0
 16 37  1  0  0  0  0
 16 38  1  0  0  0  0
 17 18  1  0  0  0  0
 17 39  1  0  0  0  0
 17 40  1  0  0  0  0
 18 19  1  0  0  0  0
 18 22  1  0  0  0  0
 18 24  1  1  0  0  0
 19 20  1  0  0  0  0
 19 41  1  6  0  0  0
 20 21  1  0  0  0  0
 20 42  1  0  0  0  0
 20 43  1  0  0  0  0
 21 22  1  0  0  0  0
 21 44  1  0  0  0  0
 21 45  1  0  0  0  0
 22 23  1  0  0  0  0
 22 46  1  6  0  0  0
 23 47  1  0  0  0  0
 24 48  1  0  0  0  0
 24 49  1  0  0  0  0
 24 50  1  0  0  0  0
 25 26  1  0  0  0  0
 25 51  1  0  0  0  0
 25 52  1  0  0  0  0
 26 53  1  0  0  0  0
 26 54  1  0  0  0  0
 26 55  1  0  0  0  0
M  END
$$$$
