VZ5
 OpenBabel04091914193D

 55 58  0  0  1  0  0  0  0  0999 V2000
   -3.0137    2.7210   14.1404 C   0  0  0  0  0  0  0  0  0  0  0  0
   -5.1222   -0.7777   15.9524 N   0  0  0  0  0  0  0  0  0  0  0  0
   -4.3637    1.2701   17.1940 O   0  0  0  0  0  0  0  0  0  0  0  0
   -5.3052    0.8622   16.1236 S   0  0  0  0  0  0  0  0  0  0  0  0
   -4.3440    2.6250   14.4562 C   0  0  0  0  0  0  0  0  0  0  0  0
   -6.6859    1.1432   16.1887 O   0  0  0  0  0  0  0  0  0  0  0  0
   -5.0465    3.8095   14.5060 C   0  0  0  0  0  0  0  0  0  0  0  0
   -4.7129    1.3400   14.6937 O   0  0  0  0  0  0  0  0  0  0  0  0
   -4.3828    5.0290   14.1796 C   0  0  0  0  0  0  0  0  0  0  0  0
   -3.0174    5.1077   13.8990 C   0  0  0  0  0  0  0  0  0  0  0  0
   -2.3329    3.9076   13.8448 C   0  0  0  0  0  0  0  0  0  0  0  0
   -0.8613    3.8756   13.5159 C   0  0  0  0  0  0  0  0  0  0  0  0
   -0.4475    5.0305   12.5867 C   0  0  0  0  0  0  0  0  0  0  0  0
   -0.8036    6.3351   13.2994 C   0  0  2  0  0  0  0  0  0  0  0  0
   -2.3439    6.4039   13.5007 C   0  0  2  0  0  0  0  0  0  0  0  0
   -2.7385    7.6687   14.2863 C   0  0  0  0  0  0  0  0  0  0  0  0
   -2.2710    8.9511   13.5592 C   0  0  0  0  0  0  0  0  0  0  0  0
   -0.7621    8.8763   13.4169 C   0  0  1  0  0  0  0  0  0  0  0  0
   -0.3154    7.6245   12.6239 C   0  0  1  0  0  0  0  0  0  0  0  0
    1.2067    7.8595   12.5746 C   0  0  0  0  0  0  0  0  0  0  0  0
    1.3661    9.4000   12.6684 C   0  0  0  0  0  0  0  0  0  0  0  0
   -0.0599    9.9582   12.6014 C   0  0  2  0  0  0  0  0  0  0  0  0
   -0.0515   11.2253   13.2199 O   0  0  0  0  0  0  0  0  0  0  0  0
   -0.1691    8.8876   14.8472 C   0  0  0  0  0  0  0  0  0  0  0  0
   -6.4895    3.8677   14.8540 C   0  0  0  0  0  0  0  0  0  0  0  0
   -6.6745    4.2169   16.3100 C   0  0  0  0  0  0  0  0  0  0  0  0
   -2.4496    1.8117   14.2523 H   0  0  0  0  0  0  0  0  0  0  0  0
   -5.4533   -1.3759   16.6928 H   0  0  0  0  0  0  0  0  0  0  0  0
   -4.6820   -1.1210   15.1091 H   0  0  0  0  0  0  0  0  0  0  0  0
   -4.9862    5.9316   14.0868 H   0  0  0  0  0  0  0  0  0  0  0  0
   -0.6107    2.9262   13.0329 H   0  0  0  0  0  0  0  0  0  0  0  0
   -0.2904    3.9588   14.4513 H   0  0  0  0  0  0  0  0  0  0  0  0
   -0.9831    4.9485   11.6310 H   0  0  0  0  0  0  0  0  0  0  0  0
    0.6314    4.9815   12.3881 H   0  0  0  0  0  0  0  0  0  0  0  0
   -0.3063    6.2856   14.2723 H   0  0  0  0  0  0  0  0  0  0  0  0
   -2.7704    6.5572   12.5170 H   0  0  0  0  0  0  0  0  0  0  0  0
   -2.2987    7.6230   15.2861 H   0  0  0  0  0  0  0  0  0  0  0  0
   -3.8159    7.7058   14.4238 H   0  0  0  0  0  0  0  0  0  0  0  0
   -2.5479    9.8436   14.1388 H   0  0  0  0  0  0  0  0  0  0  0  0
   -2.7437    9.0300   12.5718 H   0  0  0  0  0  0  0  0  0  0  0  0
   -0.7187    7.6765   11.5974 H   0  0  0  0  0  0  0  0  0  0  0  0
    1.6428    7.4841   11.6499 H   0  0  0  0  0  0  0  0  0  0  0  0
    1.6969    7.3552   13.4217 H   0  0  0  0  0  0  0  0  0  0  0  0
    1.9972    9.8184   11.8918 H   0  0  0  0  0  0  0  0  0  0  0  0
    1.8143    9.7123   13.6337 H   0  0  0  0  0  0  0  0  0  0  0  0
   -0.4409   10.0081   11.5650 H   0  0  0  0  0  0  0  0  0  0  0  0
   -0.9379   11.6081   13.1883 H   0  0  0  0  0  0  0  0  0  0  0  0
   -0.6038    8.1215   15.4709 H   0  0  0  0  0  0  0  0  0  0  0  0
   -0.3263    9.8607   15.3083 H   0  0  0  0  0  0  0  0  0  0  0  0
    0.8969    8.6682   14.8534 H   0  0  0  0  0  0  0  0  0  0  0  0
   -6.9293    2.8992   14.6279 H   0  0  0  0  0  0  0  0  0  0  0  0
   -6.9690    4.6167   14.2175 H   0  0  0  0  0  0  0  0  0  0  0  0
   -7.7399    4.2407   16.5427 H   0  0  0  0  0  0  0  0  0  0  0  0
   -6.2319    5.1938   16.5234 H   0  0  0  0  0  0  0  0  0  0  0  0
   -6.1857    3.4716   16.9434 H   0  0  0  0  0  0  0  0  0  0  0  0
  1  5  2  0  0  0  0
  1 11  1  0  0  0  0
  1 27  1  0  0  0  0
  2  4  1  0  0  0  0
  2 28  1  0  0  0  0
  2 29  1  0  0  0  0
  3  4  2  0  0  0  0
  4  6  2  0  0  0  0
  4  8  1  0  0  0  0
  5  7  1  0  0  0  0
  5  8  1  0  0  0  0
  7  9  2  0  0  0  0
  7 25  1  0  0  0  0
  9 10  1  0  0  0  0
  9 30  1  0  0  0  0
 10 11  2  0  0  0  0
 10 15  1  0  0  0  0
 11 12  1  0  0  0  0
 12 13  1  0  0  0  0
 12 31  1  0  0  0  0
 12 32  1  0  0  0  0
 13 14  1  0  0  0  0
 13 33  1  0  0  0  0
 13 34  1  0  0  0  0
 14 15  1  0  0  0  0
 14 19  1  0  0  0  0
 14 35  1  1  0  0  0
 15 16  1  0  0  0  0
 15 36  1  6  0  0  0
 16 17  1  0  0  0  0
 16 37  1  0  0  0  0
 16 38  1  0  0  0  0
 17 18  1  0  0  0  0
 17 39  1  0  0  0  0
 17 40  1  0  0  0  0
 18 19  1  0  0  0  0
 18 22  1  0  0  0  0
 18 24  1  1  0  0  0
 19 20  1  0  0  0  0
 19 41  1  6  0  0  0
 20 21  1  0  0  0  0
 20 42  1  0  0  0  0
 20 43  1  0  0  0  0
 21 22  1  0  0  0  0
 21 44  1  0  0  0  0
 21 45  1  0  0  0  0
 22 23  1  0  0  0  0
 22 46  1  6  0  0  0
 23 47  1  0  0  0  0
 24 48  1  0  0  0  0
 24 49  1  0  0  0  0
 24 50  1  0  0  0  0
 25 26  1  0  0  0  0
 25 51  1  0  0  0  0
 25 52  1  0  0  0  0
 26 53  1  0  0  0  0
 26 54  1  0  0  0  0
 26 55  1  0  0  0  0
M  END
$$$$
