WWV
 OpenBabel04091913583D

 42 43  0  0  0  0  0  0  0  0999 V2000
   -5.0913    2.1809   15.7100 C   0  0  0  0  0  0  0  0  0  0  0  0
   -5.3907   -0.4650   16.1074 N   0  0  0  0  0  0  0  0  0  0  0  0
   -7.3507    1.0791   16.4577 O   0  0  0  0  0  0  0  0  0  0  0  0
   -5.9184    0.9968   16.7291 S   0  0  0  0  0  0  0  0  0  0  0  0
   -5.7855    3.2506   15.1530 C   0  0  0  0  0  0  0  0  0  0  0  0
   -5.3801    1.0868   18.0466 O   0  0  0  0  0  0  0  0  0  0  0  0
   -5.0869    4.1970   14.3945 C   0  0  0  0  0  0  0  0  0  0  0  0
   -3.7103    4.0716   14.1860 C   0  0  0  0  0  0  0  0  0  0  0  0
   -3.0308    2.9801   14.7464 C   0  0  0  0  0  0  0  0  0  0  0  0
   -3.7165    2.0379   15.5172 C   0  0  0  0  0  0  0  0  0  0  0  0
   -2.9288    4.9873   13.4554 N   0  0  0  0  0  0  0  0  0  0  0  0
   -3.3442    6.1721   12.8736 C   0  0  0  0  0  0  0  0  0  0  0  0
   -4.4944    6.5903   12.8511 O   0  0  0  0  0  0  0  0  0  0  0  0
   -2.2511    6.8616   12.3501 N   0  0  0  0  0  0  0  0  0  0  0  0
   -2.4151    8.2063   11.9518 C   0  0  0  0  0  0  0  0  0  0  0  0
   -1.7594    9.2590   12.6304 C   0  0  0  0  0  0  0  0  0  0  0  0
   -1.9707   10.5613   12.1446 C   0  0  0  0  0  0  0  0  0  0  0  0
   -2.7509   10.8080   11.0112 C   0  0  0  0  0  0  0  0  0  0  0  0
   -3.3799    9.7535   10.3525 C   0  0  0  0  0  0  0  0  0  0  0  0
   -3.2200    8.4597   10.8364 C   0  0  0  0  0  0  0  0  0  0  0  0
   -0.9373    9.0125   13.8985 C   0  0  0  0  0  0  0  0  0  0  0  0
    0.0778   10.1175   14.2222 C   0  0  0  0  0  0  0  0  0  0  0  0
   -1.8258    8.7760   15.1308 C   0  0  0  0  0  0  0  0  0  0  0  0
   -5.9773   -1.2644   16.3727 H   0  0  0  0  0  0  0  0  0  0  0  0
   -4.9996   -0.4685   15.1664 H   0  0  0  0  0  0  0  0  0  0  0  0
   -6.8527    3.3719   15.3136 H   0  0  0  0  0  0  0  0  0  0  0  0
   -5.6543    5.0283   13.9818 H   0  0  0  0  0  0  0  0  0  0  0  0
   -1.9600    2.8588   14.6074 H   0  0  0  0  0  0  0  0  0  0  0  0
   -3.1674    1.2198   15.9787 H   0  0  0  0  0  0  0  0  0  0  0  0
   -1.9497    4.7676   13.3637 H   0  0  0  0  0  0  0  0  0  0  0  0
   -1.3736    6.6431   12.7935 H   0  0  0  0  0  0  0  0  0  0  0  0
   -1.5308   11.4267   12.6356 H   0  0  0  0  0  0  0  0  0  0  0  0
   -2.8837   11.8246   10.6523 H   0  0  0  0  0  0  0  0  0  0  0  0
   -3.9866    9.9389    9.4729 H   0  0  0  0  0  0  0  0  0  0  0  0
   -3.7206    7.6372   10.3219 H   0  0  0  0  0  0  0  0  0  0  0  0
   -0.3389    8.1089   13.7395 H   0  0  0  0  0  0  0  0  0  0  0  0
    0.6696    9.8533   15.1052 H   0  0  0  0  0  0  0  0  0  0  0  0
   -0.4086   11.0743   14.4399 H   0  0  0  0  0  0  0  0  0  0  0  0
    0.7690   10.2642   13.3854 H   0  0  0  0  0  0  0  0  0  0  0  0
   -2.5501    7.9724   14.9732 H   0  0  0  0  0  0  0  0  0  0  0  0
   -2.3844    9.6769   15.4058 H   0  0  0  0  0  0  0  0  0  0  0  0
   -1.2108    8.4894   15.9927 H   0  0  0  0  0  0  0  0  0  0  0  0
  1  4  1  0  0  0  0
  1  5  2  0  0  0  0
  1 10  1  0  0  0  0
  2  4  1  0  0  0  0
  2 24  1  0  0  0  0
  2 25  1  0  0  0  0
  3  4  2  0  0  0  0
  4  6  2  0  0  0  0
  5  7  1  0  0  0  0
  5 26  1  0  0  0  0
  7  8  2  0  0  0  0
  7 27  1  0  0  0  0
  8  9  1  0  0  0  0
  8 11  1  0  0  0  0
  9 10  2  0  0  0  0
  9 28  1  0  0  0  0
 10 29  1  0  0  0  0
 11 12  1  0  0  0  0
 11 30  1  0  0  0  0
 12 13  2  0  0  0  0
 12 14  1  0  0  0  0
 14 15  1  0  0  0  0
 14 31  1  0  0  0  0
 15 16  2  0  0  0  0
 15 20  1  0  0  0  0
 16 17  1  0  0  0  0
 16 21  1  0  0  0  0
 17 18  2  0  0  0  0
 17 32  1  0  0  0  0
 18 19  1  0  0  0  0
 18 33  1  0  0  0  0
 19 20  2  0  0  0  0
 19 34  1  0  0  0  0
 20 35  1  0  0  0  0
 21 22  1  0  0  0  0
 21 23  1  0  0  0  0
 21 36  1  0  0  0  0
 22 37  1  0  0  0  0
 22 38  1  0  0  0  0
 22 39  1  0  0  0  0
 23 40  1  0  0  0  0
 23 41  1  0  0  0  0
 23 42  1  0  0  0  0
M  END
$$$$
