WWZ
 OpenBabel04091913583D

 33 34  0  0  0  0  0  0  0  0999 V2000
   -5.1379    2.2460   15.8611 C   0  0  0  0  0  0  0  0  0  0  0  0
   -5.3497   -0.4398   16.1677 N   0  0  0  0  0  0  0  0  0  0  0  0
   -7.2766    1.0495   16.6396 O   0  0  0  0  0  0  0  0  0  0  0  0
   -5.8310    0.9764   16.8312 S   0  0  0  0  0  0  0  0  0  0  0  0
   -3.7848    2.1791   15.5810 C   0  0  0  0  0  0  0  0  0  0  0  0
   -5.3173    1.0455   18.1852 O   0  0  0  0  0  0  0  0  0  0  0  0
   -3.1670    3.2165   14.8857 C   0  0  0  0  0  0  0  0  0  0  0  0
   -3.9175    4.2938   14.4124 C   0  0  0  0  0  0  0  0  0  0  0  0
   -5.2921    4.3357   14.6641 C   0  0  0  0  0  0  0  0  0  0  0  0
   -5.9135    3.3152   15.3982 C   0  0  0  0  0  0  0  0  0  0  0  0
   -3.2498    5.3409   13.7397 N   0  0  0  0  0  0  0  0  0  0  0  0
   -3.8280    6.1343   12.7854 C   0  0  0  0  0  0  0  0  0  0  0  0
   -4.9153    5.8622   12.2324 O   0  0  0  0  0  0  0  0  0  0  0  0
   -3.1028    7.2270   12.3672 N   0  0  0  0  0  0  0  0  0  0  0  0
   -2.0897    7.8783   13.0958 C   0  0  0  0  0  0  0  0  0  0  0  0
   -1.0549    8.5090   12.4004 C   0  0  0  0  0  0  0  0  0  0  0  0
   -0.0411    9.1729   13.1040 C   0  0  0  0  0  0  0  0  0  0  0  0
   -0.1009    9.2322   14.5008 C   0  0  0  0  0  0  0  0  0  0  0  0
    0.8377    9.9022   15.1830 F   0  0  0  0  0  0  0  0  0  0  0  0
   -1.1354    8.6137   15.2089 C   0  0  0  0  0  0  0  0  0  0  0  0
   -2.1333    7.9300   14.5068 C   0  0  0  0  0  0  0  0  0  0  0  0
   -5.6565   -1.2997   16.6292 H   0  0  0  0  0  0  0  0  0  0  0  0
   -4.7668   -0.4460   15.3519 H   0  0  0  0  0  0  0  0  0  0  0  0
   -3.1873    1.3372   15.9438 H   0  0  0  0  0  0  0  0  0  0  0  0
   -2.1022    3.1570   14.6856 H   0  0  0  0  0  0  0  0  0  0  0  0
   -5.8934    5.1814   14.3297 H   0  0  0  0  0  0  0  0  0  0  0  0
   -6.9759    3.3761   15.6207 H   0  0  0  0  0  0  0  0  0  0  0  0
   -2.2566    5.4249   13.9304 H   0  0  0  0  0  0  0  0  0  0  0  0
   -3.3951    7.6627   11.4963 H   0  0  0  0  0  0  0  0  0  0  0  0
   -0.9993    8.4686   11.3102 H   0  0  0  0  0  0  0  0  0  0  0  0
    0.7664    9.6498   12.5547 H   0  0  0  0  0  0  0  0  0  0  0  0
   -1.1510    8.6845   16.2928 H   0  0  0  0  0  0  0  0  0  0  0  0
   -2.9656    7.4769   15.0358 H   0  0  0  0  0  0  0  0  0  0  0  0
  1  4  1  0  0  0  0
  1  5  2  0  0  0  0
  1 10  1  0  0  0  0
  2  4  1  0  0  0  0
  2 22  1  0  0  0  0
  2 23  1  0  0  0  0
  3  4  2  0  0  0  0
  4  6  2  0  0  0  0
  5  7  1  0  0  0  0
  5 24  1  0  0  0  0
  7  8  2  0  0  0  0
  7 25  1  0  0  0  0
  8  9  1  0  0  0  0
  8 11  1  0  0  0  0
  9 10  2  0  0  0  0
  9 26  1  0  0  0  0
 10 27  1  0  0  0  0
 11 12  1  0  0  0  0
 11 28  1  0  0  0  0
 12 13  2  0  0  0  0
 12 14  1  0  0  0  0
 14 15  1  0  0  0  0
 14 29  1  0  0  0  0
 15 16  2  0  0  0  0
 15 21  1  0  0  0  0
 16 17  1  0  0  0  0
 16 30  1  0  0  0  0
 17 18  2  0  0  0  0
 17 31  1  0  0  0  0
 18 19  1  0  0  0  0
 18 20  1  0  0  0  0
 20 21  2  0  0  0  0
 20 32  1  0  0  0  0
 21 33  1  0  0  0  0
M  END
$$$$
