X0B
 OpenBabel04091916443D

 70 75  0  0  0  0  0  0  0  0999 V2000
  -14.2076  -18.2205  -47.1355 O   0  0  0  0  0  0  0  0  0  0  0  0
  -14.1593  -17.0163  -47.5501 C   0  0  0  0  0  0  0  0  0  0  0  0
  -13.2120  -16.5134  -48.2395 O   0  0  0  0  0  0  0  0  0  0  0  0
  -15.3131  -16.1166  -47.1958 C   0  0  0  0  0  0  0  0  0  0  0  0
  -16.5403  -16.6208  -46.7560 N   0  0  0  0  0  0  0  0  0  0  0  0
  -15.2855  -14.7288  -47.2691 C   0  0  0  0  0  0  0  0  0  0  0  0
  -14.2227  -13.7837  -47.7054 C   0  0  0  0  0  0  0  0  0  0  0  0
  -14.3180  -13.5937  -49.2174 C   0  0  0  0  0  0  0  0  0  0  0  0
  -13.0023  -13.1526  -49.8252 C   0  0  0  0  0  0  0  0  0  0  0  0
  -12.6246  -11.8839  -49.2646 O   0  0  0  0  0  0  0  0  0  0  0  0
  -11.4531  -11.3412  -49.7070 C   0  0  0  0  0  0  0  0  0  0  0  0
  -11.1130  -10.0789  -49.2148 C   0  0  0  0  0  0  0  0  0  0  0  0
   -9.9326   -9.4439  -49.6194 C   0  0  0  0  0  0  0  0  0  0  0  0
   -9.0760  -10.0699  -50.5331 C   0  0  0  0  0  0  0  0  0  0  0  0
   -7.8064   -9.3967  -50.9582 C   0  0  0  0  0  0  0  0  0  0  0  0
   -7.1316  -10.1516  -52.0381 N   0  3  0  0  0  0  0  0  0  0  0  0
   -9.4250  -11.3383  -51.0129 C   0  0  0  0  0  0  0  0  0  0  0  0
  -10.5949  -11.9608  -50.6005 C   0  0  0  0  0  0  0  0  0  0  0  0
  -16.7792  -14.0710  -46.7743 S   0  0  0  0  0  0  0  0  0  0  0  0
  -17.3885  -15.6465  -46.5295 C   0  0  0  0  0  0  0  0  0  0  0  0
  -18.7535  -15.8551  -46.0587 C   0  0  0  0  0  0  0  0  0  0  0  0
  -19.0750  -17.1034  -45.5039 C   0  0  0  0  0  0  0  0  0  0  0  0
  -20.3620  -17.3579  -45.0338 C   0  0  0  0  0  0  0  0  0  0  0  0
  -21.3453  -16.3669  -45.1344 C   0  0  0  0  0  0  0  0  0  0  0  0
  -22.7359  -16.6161  -44.6407 C   0  0  0  0  0  0  0  0  0  0  0  0
  -23.7181  -16.0013  -45.6295 C   0  0  0  0  0  0  0  0  0  0  0  0
  -23.5446  -14.5020  -45.6891 C   0  0  0  0  0  0  0  0  0  0  0  0
  -19.7387  -14.8642  -46.1396 C   0  0  0  0  0  0  0  0  0  0  0  0
  -21.0312  -15.1262  -45.6927 C   0  0  0  0  0  0  0  0  0  0  0  0
  -22.0953  -14.0907  -45.7940 C   0  0  0  0  0  0  0  0  0  0  0  0
  -21.7485  -12.8570  -45.9347 N   0  0  0  0  0  0  0  0  0  0  0  0
  -22.7157  -11.9047  -45.9579 N   0  0  0  0  0  0  0  0  0  0  0  0
  -22.4005  -10.6117  -45.7514 C   0  0  0  0  0  0  0  0  0  0  0  0
  -20.7721  -10.2160  -45.3731 S   0  0  0  0  0  0  0  0  0  0  0  0
  -21.2098   -8.5921  -45.2935 C   0  0  0  0  0  0  0  0  0  0  0  0
  -20.3404   -7.5421  -45.0134 C   0  0  0  0  0  0  0  0  0  0  0  0
  -20.8745   -6.2637  -44.9843 C   0  0  0  0  0  0  0  0  0  0  0  0
  -23.2480   -9.6065  -45.8017 N   0  0  0  0  0  0  0  0  0  0  0  0
  -22.5575   -8.4129  -45.5426 C   0  0  0  0  0  0  0  0  0  0  0  0
  -23.0891   -7.1173  -45.5169 C   0  0  0  0  0  0  0  0  0  0  0  0
  -22.2277   -6.0469  -45.2336 C   0  0  0  0  0  0  0  0  0  0  0  0
  -13.2414  -14.1510  -47.3933 H   0  0  0  0  0  0  0  0  0  0  0  0
  -14.3544  -12.8141  -47.2033 H   0  0  0  0  0  0  0  0  0  0  0  0
  -15.0911  -12.8449  -49.4322 H   0  0  0  0  0  0  0  0  0  0  0  0
  -14.6321  -14.5284  -49.6970 H   0  0  0  0  0  0  0  0  0  0  0  0
  -13.1432  -13.0534  -50.9103 H   0  0  0  0  0  0  0  0  0  0  0  0
  -12.2400  -13.9186  -49.6304 H   0  0  0  0  0  0  0  0  0  0  0  0
  -11.7769   -9.5832  -48.5070 H   0  0  0  0  0  0  0  0  0  0  0  0
   -9.7011   -8.4633  -49.2084 H   0  0  0  0  0  0  0  0  0  0  0  0
   -7.0978   -9.3383  -50.1256 H   0  0  0  0  0  0  0  0  0  0  0  0
   -8.0050   -8.3962  -51.3549 H   0  0  0  0  0  0  0  0  0  0  0  0
   -6.2633   -9.7052  -52.3529 H   0  0  0  0  0  0  0  0  0  0  0  0
   -6.9020  -11.0942  -51.7006 H   0  0  0  0  0  0  0  0  0  0  0  0
   -8.8157  -11.8959  -51.7163 H   0  0  0  0  0  0  0  0  0  0  0  0
  -10.8072  -12.9513  -50.9981 H   0  0  0  0  0  0  0  0  0  0  0  0
  -18.3095  -17.8807  -45.4356 H   0  0  0  0  0  0  0  0  0  0  0  0
  -20.5844  -18.3224  -44.6015 H   0  0  0  0  0  0  0  0  0  0  0  0
  -22.8496  -16.1697  -43.6465 H   0  0  0  0  0  0  0  0  0  0  0  0
  -22.9239  -17.6898  -44.5661 H   0  0  0  0  0  0  0  0  0  0  0  0
  -24.7452  -16.2317  -45.3402 H   0  0  0  0  0  0  0  0  0  0  0  0
  -23.5452  -16.4123  -46.6327 H   0  0  0  0  0  0  0  0  0  0  0  0
  -23.9746  -14.0255  -44.7995 H   0  0  0  0  0  0  0  0  0  0  0  0
  -24.0716  -14.1122  -46.5685 H   0  0  0  0  0  0  0  0  0  0  0  0
  -19.5107  -13.8916  -46.5707 H   0  0  0  0  0  0  0  0  0  0  0  0
  -23.6892  -12.1129  -46.1482 H   0  0  0  0  0  0  0  0  0  0  0  0
  -19.2922   -7.7450  -44.8293 H   0  0  0  0  0  0  0  0  0  0  0  0
  -20.2081   -5.4337  -44.7609 H   0  0  0  0  0  0  0  0  0  0  0  0
  -24.1407   -6.9357  -45.7100 H   0  0  0  0  0  0  0  0  0  0  0  0
  -22.6128   -5.0310  -45.2071 H   0  0  0  0  0  0  0  0  0  0  0  0
   -7.7692  -10.2423  -52.8401 H   0  0  0  0  0  0  0  0  0  0  0  0
  1  2  2  0  0  0  0
  2  3  1  0  0  0  0
  2  4  1  0  0  0  0
  4  5  1  0  0  0  0
  4  6  2  0  0  0  0
  5 20  2  0  0  0  0
  6  7  1  0  0  0  0
  6 19  1  0  0  0  0
  7  8  1  0  0  0  0
  7 42  1  0  0  0  0
  7 43  1  0  0  0  0
  8  9  1  0  0  0  0
  8 44  1  0  0  0  0
  8 45  1  0  0  0  0
  9 10  1  0  0  0  0
  9 46  1  0  0  0  0
  9 47  1  0  0  0  0
 10 11  1  0  0  0  0
 11 12  2  0  0  0  0
 11 18  1  0  0  0  0
 12 13  1  0  0  0  0
 12 48  1  0  0  0  0
 13 14  2  0  0  0  0
 13 49  1  0  0  0  0
 14 15  1  0  0  0  0
 14 17  1  0  0  0  0
 15 16  1  0  0  0  0
 15 50  1  0  0  0  0
 15 51  1  0  0  0  0
 16 52  1  0  0  0  0
 16 53  1  0  0  0  0
 16 70  1  0  0  0  0
 17 18  2  0  0  0  0
 17 54  1  0  0  0  0
 18 55  1  0  0  0  0
 19 20  1  0  0  0  0
 20 21  1  0  0  0  0
 21 22  2  0  0  0  0
 21 28  1  0  0  0  0
 22 23  1  0  0  0  0
 22 56  1  0  0  0  0
 23 24  2  0  0  0  0
 23 57  1  0  0  0  0
 24 25  1  0  0  0  0
 24 29  1  0  0  0  0
 25 26  1  0  0  0  0
 25 58  1  0  0  0  0
 25 59  1  0  0  0  0
 26 27  1  0  0  0  0
 26 60  1  0  0  0  0
 26 61  1  0  0  0  0
 27 30  1  0  0  0  0
 27 62  1  0  0  0  0
 27 63  1  0  0  0  0
 28 29  2  0  0  0  0
 28 64  1  0  0  0  0
 29 30  1  0  0  0  0
 30 31  2  0  0  0  0
 31 32  1  0  0  0  0
 32 33  1  0  0  0  0
 32 65  1  0  0  0  0
 33 34  1  0  0  0  0
 33 38  2  0  0  0  0
 34 35  1  0  0  0  0
 35 36  2  0  0  0  0
 35 39  1  0  0  0  0
 36 37  1  0  0  0  0
 36 66  1  0  0  0  0
 37 41  2  0  0  0  0
 37 67  1  0  0  0  0
 38 39  1  0  0  0  0
 39 40  2  0  0  0  0
 40 41  1  0  0  0  0
 40 68  1  0  0  0  0
 41 69  1  0  0  0  0
M  CHG  1  16   1
M  END
$$$$
