XRX
 OpenBabel04091916403D

 34 33  0  0  1  0  0  0  0  0999 V2000
 -100.2314   36.4829   27.2689 N   0  3  0  0  0  0  0  0  0  0  0  0
  -99.8954   38.8354   25.0901 C   0  0  0  0  0  0  0  0  0  0  0  0
 -101.2875   38.6764   25.4261 O   0  0  0  0  0  0  0  0  0  0  0  0
 -100.8697   37.1159   28.4711 C   0  0  0  0  0  0  0  0  0  0  0  0
 -103.4908   39.1405   25.1703 N   0  0  0  0  0  0  0  0  0  0  0  0
 -101.9703   39.6362   23.4708 O   0  0  0  0  0  0  0  0  0  0  0  0
  -98.9475   37.1541   26.8496 C   0  0  1  0  0  0  0  0  0  0  0  0
  -99.1115   38.6162   26.3940 C   0  0  0  0  0  0  0  0  0  0  0  0
 -102.2193   39.2006   24.5766 C   0  0  0  0  0  0  0  0  0  0  0  0
 -100.0005   35.0142   27.4913 C   0  0  0  0  0  0  0  0  0  0  0  0
  -98.0489   37.1056   28.0723 C   0  0  0  0  0  0  0  0  0  0  0  0
 -104.6423   39.4939   24.3476 C   0  0  0  0  0  0  0  0  0  0  0  0
 -103.7295   38.4717   26.4317 C   0  0  0  0  0  0  0  0  0  0  0  0
  -99.7043   39.8467   24.7103 H   0  0  0  0  0  0  0  0  0  0  0  0
  -99.6063   38.0998   24.3330 H   0  0  0  0  0  0  0  0  0  0  0  0
 -101.8020   36.6019   28.7009 H   0  0  0  0  0  0  0  0  0  0  0  0
 -101.0607   38.1760   28.2622 H   0  0  0  0  0  0  0  0  0  0  0  0
 -100.2083   37.0182   29.3322 H   0  0  0  0  0  0  0  0  0  0  0  0
  -98.5158   36.5636   26.0336 H   0  0  0  0  0  0  0  0  0  0  0  0
  -99.5891   39.1910   27.1919 H   0  0  0  0  0  0  0  0  0  0  0  0
  -98.1053   39.0278   26.2621 H   0  0  0  0  0  0  0  0  0  0  0  0
 -100.9520   34.5444   27.7794 H   0  0  0  0  0  0  0  0  0  0  0  0
  -99.3017   34.8730   28.3118 H   0  0  0  0  0  0  0  0  0  0  0  0
  -99.6104   34.5691   26.5713 H   0  0  0  0  0  0  0  0  0  0  0  0
  -97.0738   37.5324   27.8886 H   0  0  0  0  0  0  0  0  0  0  0  0
  -97.8552   36.0559   28.3914 H   0  0  0  0  0  0  0  0  0  0  0  0
  -98.4708   37.6126   28.9269 H   0  0  0  0  0  0  0  0  0  0  0  0
 -105.5640   39.4232   24.9346 H   0  0  0  0  0  0  0  0  0  0  0  0
 -104.6992   38.8048   23.5003 H   0  0  0  0  0  0  0  0  0  0  0  0
 -104.5386   40.5121   23.9637 H   0  0  0  0  0  0  0  0  0  0  0  0
 -102.8034   38.2867   26.9642 H   0  0  0  0  0  0  0  0  0  0  0  0
 -104.2050   37.5072   26.2430 H   0  0  0  0  0  0  0  0  0  0  0  0
 -104.3645   39.0822   27.0768 H   0  0  0  0  0  0  0  0  0  0  0  0
 -100.9107   36.5804   26.4643 H   0  0  0  0  0  0  0  0  0  0  0  0
  1  4  1  0  0  0  0
  1  7  1  0  0  0  0
  1 10  1  0  0  0  0
  1 34  1  0  0  0  0
  2  3  1  0  0  0  0
  2  8  1  0  0  0  0
  2 14  1  0  0  0  0
  2 15  1  0  0  0  0
  3  9  1  0  0  0  0
  4 16  1  0  0  0  0
  4 17  1  0  0  0  0
  4 18  1  0  0  0  0
  5  9  1  0  0  0  0
  5 12  1  0  0  0  0
  5 13  1  0  0  0  0
  6  9  2  0  0  0  0
  7  8  1  0  0  0  0
  7 11  1  0  0  0  0
  7 19  1  6  0  0  0
  8 20  1  0  0  0  0
  8 21  1  0  0  0  0
 10 22  1  0  0  0  0
 10 23  1  0  0  0  0
 10 24  1  0  0  0  0
 11 25  1  0  0  0  0
 11 26  1  0  0  0  0
 11 27  1  0  0  0  0
 12 28  1  0  0  0  0
 12 29  1  0  0  0  0
 12 30  1  0  0  0  0
 13 31  1  0  0  0  0
 13 32  1  0  0  0  0
 13 33  1  0  0  0  0
M  CHG  1   1   1
M  END
$$$$
