YHO
 OpenBabel04091911313D

 21 21  0  0  1  0  0  0  0  0999 V2000
   33.6222   65.8232    7.0788 O   0  0  0  0  0  0  0  0  0  0  0  0
   32.9494   66.8409    7.8198 C   0  0  2  0  0  0  0  0  0  0  0  0
   32.5706   66.3088    9.2150 C   0  0  2  0  0  0  0  0  0  0  0  0
   33.3856   65.2178    9.6537 O   0  0  0  0  0  0  0  0  0  0  0  0
   31.0961   65.8473    9.0831 C   0  0  2  0  0  0  0  0  0  0  0  0
   30.9276   64.4741    9.6057 N   0  3  0  0  0  0  0  0  0  0  0  0
   30.7536   65.9278    7.6068 C   0  0  0  0  0  0  0  0  0  0  0  0
   31.5772   67.1421    7.1845 C   0  0  2  0  0  0  0  0  0  0  0  0
   31.5832   67.2785    5.7778 O   0  0  0  0  0  0  0  0  0  0  0  0
   34.5036   65.6720    7.4635 H   0  0  0  0  0  0  0  0  0  0  0  0
   33.5887   67.7283    7.8489 H   0  0  0  0  0  0  0  0  0  0  0  0
   32.6306   67.1068    9.9630 H   0  0  0  0  0  0  0  0  0  0  0  0
   34.3121   65.5201    9.6756 H   0  0  0  0  0  0  0  0  0  0  0  0
   30.4389   66.5001    9.6680 H   0  0  0  0  0  0  0  0  0  0  0  0
   29.9774   64.1052    9.5455 H   0  0  0  0  0  0  0  0  0  0  0  0
   31.5756   63.8457    9.1074 H   0  0  0  0  0  0  0  0  0  0  0  0
   29.6865   66.0678    7.4251 H   0  0  0  0  0  0  0  0  0  0  0  0
   31.0587   65.0335    7.0535 H   0  0  0  0  0  0  0  0  0  0  0  0
   31.1444   68.0506    7.6220 H   0  0  0  0  0  0  0  0  0  0  0  0
   32.1811   68.0084    5.5417 H   0  0  0  0  0  0  0  0  0  0  0  0
   31.2546   64.4301   10.5881 H   0  0  0  0  0  0  0  0  0  0  0  0
  1  2  1  0  0  0  0
  1 10  1  0  0  0  0
  2  3  1  0  0  0  0
  2  8  1  0  0  0  0
  2 11  1  1  0  0  0
  3  4  1  0  0  0  0
  3  5  1  0  0  0  0
  3 12  1  1  0  0  0
  4 13  1  0  0  0  0
  5  6  1  0  0  0  0
  5  7  1  0  0  0  0
  5 14  1  1  0  0  0
  6 15  1  0  0  0  0
  6 16  1  0  0  0  0
  6 21  1  0  0  0  0
  7  8  1  0  0  0  0
  7 17  1  0  0  0  0
  7 18  1  0  0  0  0
  8  9  1  0  0  0  0
  8 19  1  1  0  0  0
  9 20  1  0  0  0  0
M  CHG  1   6   1
M  END
$$$$
