Z12
 OpenBabel04091912333D

 43 46  0  0  0  0  0  0  0  0999 V2000
    2.1741    5.0394   27.2586 Cl  0  0  0  0  0  0  0  0  0  0  0  0
    3.7003    4.9503   28.0599 C   0  0  0  0  0  0  0  0  0  0  0  0
    3.6676    4.9340   29.4593 C   0  0  0  0  0  0  0  0  0  0  0  0
    4.8528    4.8581   30.1910 C   0  0  0  0  0  0  0  0  0  0  0  0
    4.7850    4.8230   31.9090 Cl  0  0  0  0  0  0  0  0  0  0  0  0
    6.0817    4.8138   29.5387 C   0  0  0  0  0  0  0  0  0  0  0  0
    6.1222    4.8422   28.1444 C   0  0  0  0  0  0  0  0  0  0  0  0
    4.9316    4.9043   27.4010 C   0  0  0  0  0  0  0  0  0  0  0  0
    5.0557    4.7747   25.6384 S   0  0  0  0  0  0  0  0  0  0  0  0
    4.1596    3.7187   25.2175 O   0  0  0  0  0  0  0  0  0  0  0  0
    6.4580    4.7244   25.2852 O   0  0  0  0  0  0  0  0  0  0  0  0
    4.4166    6.1885   25.0522 N   0  0  0  0  0  0  0  0  0  0  0  0
    4.9740    7.4855   25.1359 C   0  0  0  0  0  0  0  0  0  0  0  0
    4.1703    8.5292   24.6615 C   0  0  0  0  0  0  0  0  0  0  0  0
    4.6301    9.8446   24.6865 C   0  0  0  0  0  0  0  0  0  0  0  0
    3.5977   11.0781   24.0611 Cl  0  0  0  0  0  0  0  0  0  0  0  0
    5.8973   10.1327   25.2043 C   0  0  0  0  0  0  0  0  0  0  0  0
    6.7158    9.0865   25.6422 C   0  0  0  0  0  0  0  0  0  0  0  0
    8.3142    9.3748   26.2381 Cl  0  0  0  0  0  0  0  0  0  0  0  0
    6.2499    7.7706   25.6252 C   0  0  0  0  0  0  0  0  0  0  0  0
    6.3592   11.4247   25.1768 O   0  0  0  0  0  0  0  0  0  0  0  0
    6.3191   12.1558   26.3365 C   0  0  0  0  0  0  0  0  0  0  0  0
    6.1556   11.6741   27.6325 C   0  0  0  0  0  0  0  0  0  0  0  0
    6.1724   12.5646   28.7171 C   0  0  0  0  0  0  0  0  0  0  0  0
    6.0217   12.1113   30.0395 C   0  0  0  0  0  0  0  0  0  0  0  0
    6.4994   13.5257   26.1894 C   0  0  0  0  0  0  0  0  0  0  0  0
    6.5102   14.4123   27.2075 N   0  0  0  0  0  0  0  0  0  0  0  0
    6.3454   13.9403   28.4530 C   0  0  0  0  0  0  0  0  0  0  0  0
    6.3428   14.8204   29.5273 C   0  0  0  0  0  0  0  0  0  0  0  0
    6.1800   14.3738   30.8423 C   0  0  0  0  0  0  0  0  0  0  0  0
    6.0232   13.0171   31.0993 C   0  0  0  0  0  0  0  0  0  0  0  0
    2.7155    4.9678   29.9858 H   0  0  0  0  0  0  0  0  0  0  0  0
    7.0104    4.7415   30.1015 H   0  0  0  0  0  0  0  0  0  0  0  0
    7.0877    4.7872   27.6424 H   0  0  0  0  0  0  0  0  0  0  0  0
    3.5503    6.0502   24.5343 H   0  0  0  0  0  0  0  0  0  0  0  0
    3.1823    8.3132   24.2592 H   0  0  0  0  0  0  0  0  0  0  0  0
    6.9146    6.9849   25.9685 H   0  0  0  0  0  0  0  0  0  0  0  0
    6.0349   10.6150   27.8308 H   0  0  0  0  0  0  0  0  0  0  0  0
    5.9021   11.0513   30.2491 H   0  0  0  0  0  0  0  0  0  0  0  0
    6.6496   13.9533   25.2011 H   0  0  0  0  0  0  0  0  0  0  0  0
    6.4689   15.8835   29.3353 H   0  0  0  0  0  0  0  0  0  0  0  0
    6.1788   15.0902   31.6594 H   0  0  0  0  0  0  0  0  0  0  0  0
    5.9025   12.6652   32.1209 H   0  0  0  0  0  0  0  0  0  0  0  0
  1  2  1  0  0  0  0
  2  3  2  0  0  0  0
  2  8  1  0  0  0  0
  3  4  1  0  0  0  0
  3 32  1  0  0  0  0
  4  5  1  0  0  0  0
  4  6  2  0  0  0  0
  6  7  1  0  0  0  0
  6 33  1  0  0  0  0
  7  8  2  0  0  0  0
  7 34  1  0  0  0  0
  8  9  1  0  0  0  0
  9 10  2  0  0  0  0
  9 11  2  0  0  0  0
  9 12  1  0  0  0  0
 12 13  1  0  0  0  0
 12 35  1  0  0  0  0
 13 14  2  0  0  0  0
 13 20  1  0  0  0  0
 14 15  1  0  0  0  0
 14 36  1  0  0  0  0
 15 16  1  0  0  0  0
 15 17  2  0  0  0  0
 17 18  1  0  0  0  0
 17 21  1  0  0  0  0
 18 19  1  0  0  0  0
 18 20  2  0  0  0  0
 20 37  1  0  0  0  0
 21 22  1  0  0  0  0
 22 23  2  0  0  0  0
 22 26  1  0  0  0  0
 23 24  1  0  0  0  0
 23 38  1  0  0  0  0
 24 25  2  0  0  0  0
 24 28  1  0  0  0  0
 25 31  1  0  0  0  0
 25 39  1  0  0  0  0
 26 27  2  0  0  0  0
 26 40  1  0  0  0  0
 27 28  1  0  0  0  0
 28 29  2  0  0  0  0
 29 30  1  0  0  0  0
 29 41  1  0  0  0  0
 30 31  2  0  0  0  0
 30 42  1  0  0  0  0
 31 43  1  0  0  0  0
M  END
$$$$
