Z48
 OpenBabel04091913053D

 54 57  0  0  1  0  0  0  0  0999 V2000
    7.5988   -0.5516   47.8901 C   0  0  0  0  0  0  0  0  0  0  0  0
    6.5265   -0.9255   46.9268 C   0  0  0  0  0  0  0  0  0  0  0  0
    5.2314   -0.4952   47.1434 C   0  0  0  0  0  0  0  0  0  0  0  0
    4.1911   -0.7490   46.3305 N   0  0  0  0  0  0  0  0  0  0  0  0
    4.4473   -1.4801   45.2401 C   0  0  0  0  0  0  0  0  0  0  0  0
    3.3481   -1.7740   44.4386 N   0  0  0  0  0  0  0  0  0  0  0  0
    3.2437   -2.5705   43.2993 C   0  0  0  0  0  0  0  0  0  0  0  0
    4.2868   -2.7222   42.3799 C   0  0  0  0  0  0  0  0  0  0  0  0
    4.1749   -3.5829   41.2828 C   0  0  0  0  0  0  0  0  0  0  0  0
    3.0129   -4.3240   41.1046 C   0  0  0  0  0  0  0  0  0  0  0  0
    1.9678   -4.2099   42.0158 C   0  0  0  0  0  0  0  0  0  0  0  0
    2.0817   -3.3349   43.1041 C   0  0  0  0  0  0  0  0  0  0  0  0
    5.6653   -1.9500   44.9463 N   0  0  0  0  0  0  0  0  0  0  0  0
    6.7001   -1.6762   45.7748 C   0  0  0  0  0  0  0  0  0  0  0  0
    7.9914   -2.2091   45.3115 C   0  0  1  0  0  0  0  0  0  0  0  0
    8.1917   -2.6297   44.0061 C   0  0  0  0  0  0  0  0  0  0  0  0
    9.4870   -3.0348   43.8589 N   0  3  0  0  0  0  0  0  0  0  0  0
   10.1623   -2.9165   45.0499 C   0  0  2  0  0  0  0  0  0  0  0  0
    9.2443   -2.4065   45.9598 C   0  0  0  0  0  0  0  0  0  0  0  0
   11.5649   -3.2064   45.2675 C   0  0  0  0  0  0  0  0  0  0  0  0
   12.2293   -2.7007   46.1629 O   0  0  0  0  0  0  0  0  0  0  0  0
   12.0835   -4.1106   44.3635 N   0  0  0  0  0  0  0  0  0  0  0  0
   13.4863   -4.5270   44.3923 C   0  0  2  0  0  0  0  0  0  0  0  0
   13.8865   -4.9574   42.9644 C   0  0  0  0  0  0  0  0  0  0  0  0
   13.5401   -3.9620   41.9976 O   0  0  0  0  0  0  0  0  0  0  0  0
   13.7820   -5.6501   45.3775 C   0  0  0  0  0  0  0  0  0  0  0  0
   12.7850   -6.4913   45.8955 C   0  0  0  0  0  0  0  0  0  0  0  0
   13.1089   -7.5295   46.7743 C   0  0  0  0  0  0  0  0  0  0  0  0
   14.4331   -7.7498   47.1437 C   0  0  0  0  0  0  0  0  0  0  0  0
   15.4376   -6.9310   46.6366 C   0  0  0  0  0  0  0  0  0  0  0  0
   15.1150   -5.8890   45.7625 C   0  0  0  0  0  0  0  0  0  0  0  0
    7.2112    0.0743   48.7007 H   0  0  0  0  0  0  0  0  0  0  0  0
    8.3822    0.0226   47.3857 H   0  0  0  0  0  0  0  0  0  0  0  0
    8.0204   -1.4435   48.3622 H   0  0  0  0  0  0  0  0  0  0  0  0
    4.9768    0.1010   48.0172 H   0  0  0  0  0  0  0  0  0  0  0  0
    2.5027   -1.4155   44.8496 H   0  0  0  0  0  0  0  0  0  0  0  0
    5.2015   -2.1512   42.5017 H   0  0  0  0  0  0  0  0  0  0  0  0
    4.9974   -3.6701   40.5844 H   0  0  0  0  0  0  0  0  0  0  0  0
    2.9262   -5.0009   40.2565 H   0  0  0  0  0  0  0  0  0  0  0  0
    1.0671   -4.8063   41.8922 H   0  0  0  0  0  0  0  0  0  0  0  0
    1.2672   -3.2862   43.8223 H   0  0  0  0  0  0  0  0  0  0  0  0
    7.5149   -2.6512   43.1632 H   0  0  0  0  0  0  0  0  0  0  0  0
    9.8977   -3.3273   42.9823 H   0  0  0  0  0  0  0  0  0  0  0  0
    9.5042   -2.2041   46.9890 H   0  0  0  0  0  0  0  0  0  0  0  0
   11.4374   -4.7065   43.8715 H   0  0  0  0  0  0  0  0  0  0  0  0
   14.0697   -3.6419   44.6817 H   0  0  0  0  0  0  0  0  0  0  0  0
   13.3678   -5.8804   42.6766 H   0  0  0  0  0  0  0  0  0  0  0  0
   14.9633   -5.1394   42.8869 H   0  0  0  0  0  0  0  0  0  0  0  0
   12.6278   -3.6866   42.1923 H   0  0  0  0  0  0  0  0  0  0  0  0
   11.7400   -6.3485   45.6362 H   0  0  0  0  0  0  0  0  0  0  0  0
   12.3230   -8.1647   47.1752 H   0  0  0  0  0  0  0  0  0  0  0  0
   14.6808   -8.5550   47.8307 H   0  0  0  0  0  0  0  0  0  0  0  0
   16.4723   -7.0991   46.9254 H   0  0  0  0  0  0  0  0  0  0  0  0
   15.9190   -5.2599   45.3844 H   0  0  0  0  0  0  0  0  0  0  0  0
  1  2  1  0  0  0  0
  1 32  1  0  0  0  0
  1 33  1  0  0  0  0
  1 34  1  0  0  0  0
  2  3  2  0  0  0  0
  2 14  1  0  0  0  0
  3  4  1  0  0  0  0
  3 35  1  0  0  0  0
  4  5  2  0  0  0  0
  5  6  1  0  0  0  0
  5 13  1  0  0  0  0
  6  7  1  0  0  0  0
  6 36  1  0  0  0  0
  7  8  2  0  0  0  0
  7 12  1  0  0  0  0
  8  9  1  0  0  0  0
  8 37  1  0  0  0  0
  9 10  2  0  0  0  0
  9 38  1  0  0  0  0
 10 11  1  0  0  0  0
 10 39  1  0  0  0  0
 11 12  2  0  0  0  0
 11 40  1  0  0  0  0
 12 41  1  0  0  0  0
 13 14  2  0  0  0  0
 15 14  1  6  0  0  0
 15 16  1  0  0  0  0
 15 19  1  0  0  0  0
 16 17  1  0  0  0  0
 16 42  1  0  0  0  0
 17 18  1  0  0  0  0
 17 43  1  0  0  0  0
 18 19  1  0  0  0  0
 18 20  1  6  0  0  0
 19 44  1  0  0  0  0
 20 21  2  0  0  0  0
 20 22  1  0  0  0  0
 22 23  1  0  0  0  0
 22 45  1  0  0  0  0
 23 24  1  0  0  0  0
 23 26  1  0  0  0  0
 23 46  1  1  0  0  0
 24 25  1  0  0  0  0
 24 47  1  0  0  0  0
 24 48  1  0  0  0  0
 25 49  1  0  0  0  0
 26 27  1  0  0  0  0
 26 31  1  0  0  0  0
 27 28  1  0  0  0  0
 27 50  1  0  0  0  0
 28 29  1  0  0  0  0
 28 51  1  0  0  0  0
 29 30  1  0  0  0  0
 29 52  1  0  0  0  0
 30 31  1  0  0  0  0
 30 53  1  0  0  0  0
 31 54  1  0  0  0  0
M  CHG  1  17   1
M  END
$$$$
