Z48
 OpenBabel04091913043D

 54 57  0  0  1  0  0  0  0  0999 V2000
   38.3643   32.9487   52.0614 C   0  0  0  0  0  0  0  0  0  0  0  0
   38.9498   34.3189   52.0819 C   0  0  0  0  0  0  0  0  0  0  0  0
   39.7641   34.7280   51.0439 C   0  0  0  0  0  0  0  0  0  0  0  0
   40.3340   35.9420   50.9521 N   0  0  0  0  0  0  0  0  0  0  0  0
   40.0992   36.7945   51.9568 C   0  0  0  0  0  0  0  0  0  0  0  0
   40.6717   38.0500   51.8186 N   0  0  0  0  0  0  0  0  0  0  0  0
   40.7895   39.1529   52.6703 C   0  0  0  0  0  0  0  0  0  0  0  0
   41.2455   40.3602   52.1198 C   0  0  0  0  0  0  0  0  0  0  0  0
   41.3826   41.5089   52.9001 C   0  0  0  0  0  0  0  0  0  0  0  0
   41.0527   41.4743   54.2502 C   0  0  0  0  0  0  0  0  0  0  0  0
   40.5747   40.2936   54.8128 C   0  0  0  0  0  0  0  0  0  0  0  0
   40.4384   39.1457   54.0243 C   0  0  0  0  0  0  0  0  0  0  0  0
   39.3325   36.4984   52.9968 N   0  0  0  0  0  0  0  0  0  0  0  0
   38.7495   35.2783   53.0580 C   0  0  0  0  0  0  0  0  0  0  0  0
   37.8720   35.1331   54.2199 C   0  0  1  0  0  0  0  0  0  0  0  0
   37.4421   36.2370   54.9392 C   0  0  0  0  0  0  0  0  0  0  0  0
   36.6185   35.8210   55.9407 N   0  3  0  0  0  0  0  0  0  0  0  0
   36.5177   34.4493   55.9265 C   0  0  2  0  0  0  0  0  0  0  0  0
   37.2784   34.0088   54.8555 C   0  0  0  0  0  0  0  0  0  0  0  0
   35.7214   33.6670   56.8454 C   0  0  0  0  0  0  0  0  0  0  0  0
   35.2671   32.5610   56.5801 O   0  0  0  0  0  0  0  0  0  0  0  0
   35.5371   34.2924   58.0480 N   0  0  0  0  0  0  0  0  0  0  0  0
   34.7493   33.7433   59.1388 C   0  0  2  0  0  0  0  0  0  0  0  0
   34.2350   34.9184   59.9989 C   0  0  0  0  0  0  0  0  0  0  0  0
   33.3009   35.7185   59.2722 O   0  0  0  0  0  0  0  0  0  0  0  0
   35.5158   32.7820   60.0252 C   0  0  0  0  0  0  0  0  0  0  0  0
   34.7925   31.8791   60.8258 C   0  0  0  0  0  0  0  0  0  0  0  0
   35.4462   31.0442   61.7287 C   0  0  0  0  0  0  0  0  0  0  0  0
   36.8313   31.0900   61.8369 C   0  0  0  0  0  0  0  0  0  0  0  0
   37.5655   31.9672   61.0417 C   0  0  0  0  0  0  0  0  0  0  0  0
   36.9116   32.8152   60.1430 C   0  0  0  0  0  0  0  0  0  0  0  0
   38.6480   32.4085   51.1510 H   0  0  0  0  0  0  0  0  0  0  0  0
   37.2713   32.9918   52.0804 H   0  0  0  0  0  0  0  0  0  0  0  0
   38.7380   32.3596   52.9041 H   0  0  0  0  0  0  0  0  0  0  0  0
   39.9867   34.0691   50.2081 H   0  0  0  0  0  0  0  0  0  0  0  0
   41.1405   38.1046   50.9274 H   0  0  0  0  0  0  0  0  0  0  0  0
   41.4965   40.4111   51.0635 H   0  0  0  0  0  0  0  0  0  0  0  0
   41.7475   42.4264   52.4477 H   0  0  0  0  0  0  0  0  0  0  0  0
   41.1655   42.3647   54.8617 H   0  0  0  0  0  0  0  0  0  0  0  0
   40.3117   40.2605   55.8668 H   0  0  0  0  0  0  0  0  0  0  0  0
   40.0722   38.2402   54.5015 H   0  0  0  0  0  0  0  0  0  0  0  0
   37.6453   37.2922   54.7987 H   0  0  0  0  0  0  0  0  0  0  0  0
   36.1274   36.4369   56.5754 H   0  0  0  0  0  0  0  0  0  0  0  0
   37.3802   32.9647   54.5952 H   0  0  0  0  0  0  0  0  0  0  0  0
   36.0997   35.0995   58.2663 H   0  0  0  0  0  0  0  0  0  0  0  0
   33.9035   33.2137   58.6799 H   0  0  0  0  0  0  0  0  0  0  0  0
   35.0674   35.5725   60.2874 H   0  0  0  0  0  0  0  0  0  0  0  0
   33.7486   34.5787   60.9182 H   0  0  0  0  0  0  0  0  0  0  0  0
   32.5911   35.1249   58.9680 H   0  0  0  0  0  0  0  0  0  0  0  0
   33.7066   31.8339   60.7591 H   0  0  0  0  0  0  0  0  0  0  0  0
   34.8716   30.3620   62.3518 H   0  0  0  0  0  0  0  0  0  0  0  0
   37.3440   30.4408   62.5424 H   0  0  0  0  0  0  0  0  0  0  0  0
   38.6513   31.9998   61.1267 H   0  0  0  0  0  0  0  0  0  0  0  0
   37.5116   33.4947   59.5448 H   0  0  0  0  0  0  0  0  0  0  0  0
  1  2  1  0  0  0  0
  1 32  1  0  0  0  0
  1 33  1  0  0  0  0
  1 34  1  0  0  0  0
  2  3  2  0  0  0  0
  2 14  1  0  0  0  0
  3  4  1  0  0  0  0
  3 35  1  0  0  0  0
  4  5  2  0  0  0  0
  5  6  1  0  0  0  0
  5 13  1  0  0  0  0
  6  7  1  0  0  0  0
  6 36  1  0  0  0  0
  7  8  2  0  0  0  0
  7 12  1  0  0  0  0
  8  9  1  0  0  0  0
  8 37  1  0  0  0  0
  9 10  2  0  0  0  0
  9 38  1  0  0  0  0
 10 11  1  0  0  0  0
 10 39  1  0  0  0  0
 11 12  2  0  0  0  0
 11 40  1  0  0  0  0
 12 41  1  0  0  0  0
 13 14  2  0  0  0  0
 15 14  1  6  0  0  0
 15 16  1  0  0  0  0
 15 19  1  0  0  0  0
 16 17  1  0  0  0  0
 16 42  1  0  0  0  0
 17 18  1  0  0  0  0
 17 43  1  0  0  0  0
 18 19  1  0  0  0  0
 18 20  1  6  0  0  0
 19 44  1  0  0  0  0
 20 21  2  0  0  0  0
 20 22  1  0  0  0  0
 22 23  1  0  0  0  0
 22 45  1  0  0  0  0
 23 24  1  0  0  0  0
 23 26  1  0  0  0  0
 23 46  1  6  0  0  0
 24 25  1  0  0  0  0
 24 47  1  0  0  0  0
 24 48  1  0  0  0  0
 25 49  1  0  0  0  0
 26 27  1  0  0  0  0
 26 31  1  0  0  0  0
 27 28  1  0  0  0  0
 27 50  1  0  0  0  0
 28 29  1  0  0  0  0
 28 51  1  0  0  0  0
 29 30  1  0  0  0  0
 29 52  1  0  0  0  0
 30 31  1  0  0  0  0
 30 53  1  0  0  0  0
 31 54  1  0  0  0  0
M  CHG  1  17   1
M  END
$$$$
