Z79
 OpenBabel04091913363D

 29 29  0  0  0  0  0  0  0  0999 V2000
    3.2935   -3.0771    4.0503 O   0  0  0  0  0  0  0  0  0  0  0  0
    2.1003   -3.1301    4.3358 C   0  0  0  0  0  0  0  0  0  0  0  0
    1.4827   -2.3622    5.2986 N   0  0  0  0  0  0  0  0  0  0  0  0
    2.3200   -1.4845    6.0169 O   0  0  0  0  0  0  0  0  0  0  0  0
    1.1654   -4.0911    3.6347 C   0  0  0  0  0  0  0  0  0  0  0  0
    1.6651   -5.4605    3.7018 N   0  0  0  0  0  0  0  0  0  0  0  0
    1.3013   -6.4248    4.9964 S   0  0  0  0  0  0  0  0  0  0  0  0
    0.0594   -5.9371    5.5680 O   0  0  0  0  0  0  0  0  0  0  0  0
    1.4355   -7.7929    4.5374 O   0  0  0  0  0  0  0  0  0  0  0  0
    2.5879   -6.1393    6.1883 C   0  0  0  0  0  0  0  0  0  0  0  0
    2.3389   -5.2993    7.2755 C   0  0  0  0  0  0  0  0  0  0  0  0
    3.2665   -5.2208    8.3154 C   0  0  0  0  0  0  0  0  0  0  0  0
    4.4359   -5.9900    8.2885 C   0  0  0  0  0  0  0  0  0  0  0  0
    5.2505   -5.8351    9.3763 O   0  0  0  0  0  0  0  0  0  0  0  0
    6.3063   -6.7778    9.5239 C   0  0  0  0  0  0  0  0  0  0  0  0
    4.6778   -6.8285    7.1979 C   0  0  0  0  0  0  0  0  0  0  0  0
    3.7551   -6.9077    6.1482 C   0  0  0  0  0  0  0  0  0  0  0  0
    0.5013   -2.4236    5.5448 H   0  0  0  0  0  0  0  0  0  0  0  0
    1.7320   -1.0692    6.6726 H   0  0  0  0  0  0  0  0  0  0  0  0
    1.0784   -3.7896    2.5827 H   0  0  0  0  0  0  0  0  0  0  0  0
    0.1528   -4.0293    4.0461 H   0  0  0  0  0  0  0  0  0  0  0  0
    2.1980   -5.8531    2.9296 H   0  0  0  0  0  0  0  0  0  0  0  0
    1.4156   -4.7316    7.3412 H   0  0  0  0  0  0  0  0  0  0  0  0
    3.0628   -4.5787    9.1687 H   0  0  0  0  0  0  0  0  0  0  0  0
    6.8711   -6.5109   10.4223 H   0  0  0  0  0  0  0  0  0  0  0  0
    7.0024   -6.7427    8.6797 H   0  0  0  0  0  0  0  0  0  0  0  0
    5.9074   -7.7883    9.6651 H   0  0  0  0  0  0  0  0  0  0  0  0
    5.5688   -7.4453    7.1426 H   0  0  0  0  0  0  0  0  0  0  0  0
    3.9422   -7.5956    5.3252 H   0  0  0  0  0  0  0  0  0  0  0  0
  1  2  2  0  0  0  0
  2  3  1  0  0  0  0
  2  5  1  0  0  0  0
  3  4  1  0  0  0  0
  3 18  1  0  0  0  0
  4 19  1  0  0  0  0
  5  6  1  0  0  0  0
  5 20  1  0  0  0  0
  5 21  1  0  0  0  0
  6  7  1  0  0  0  0
  6 22  1  0  0  0  0
  7  8  2  0  0  0  0
  7  9  2  0  0  0  0
  7 10  1  0  0  0  0
 10 11  2  0  0  0  0
 10 17  1  0  0  0  0
 11 12  1  0  0  0  0
 11 23  1  0  0  0  0
 12 13  2  0  0  0  0
 12 24  1  0  0  0  0
 13 14  1  0  0  0  0
 13 16  1  0  0  0  0
 14 15  1  0  0  0  0
 15 25  1  0  0  0  0
 15 26  1  0  0  0  0
 15 27  1  0  0  0  0
 16 17  2  0  0  0  0
 16 28  1  0  0  0  0
 17 29  1  0  0  0  0
M  END
$$$$
