Z93
 OpenBabel04091913343D

 52 56  0  0  1  0  0  0  0  0999 V2000
   19.3381   13.3612   -4.8155 N   0  0  0  0  0  0  0  0  0  0  0  0
   18.3707   14.0654   -5.4651 C   0  0  0  0  0  0  0  0  0  0  0  0
   18.3646   13.6986   -6.9600 C   0  0  1  0  0  0  0  0  0  0  0  0
   19.4244   12.6826   -6.9252 N   0  0  0  0  0  0  0  0  0  0  0  0
   20.0002   12.4857   -5.6517 C   0  0  0  0  0  0  0  0  0  0  0  0
   20.8642   11.7241   -5.3237 O   0  0  0  0  0  0  0  0  0  0  0  0
   17.6403   14.9054   -4.9242 O   0  0  0  0  0  0  0  0  0  0  0  0
   17.0370   13.0638   -7.3585 C   0  0  0  0  0  0  0  0  0  0  0  0
   16.5681   13.1240   -8.6778 C   0  0  0  0  0  0  0  0  0  0  0  0
   15.3462   12.5290   -9.0185 C   0  0  0  0  0  0  0  0  0  0  0  0
   14.5543   11.8463   -8.0643 C   0  0  0  0  0  0  0  0  0  0  0  0
   15.0391   11.7920   -6.7441 C   0  0  0  0  0  0  0  0  0  0  0  0
   16.2670   12.3727   -6.3962 C   0  0  0  0  0  0  0  0  0  0  0  0
   13.2601   11.2145   -8.4370 C   0  0  0  0  0  0  0  0  0  0  0  0
   12.2670   10.9031   -7.4876 C   0  0  0  0  0  0  0  0  0  0  0  0
   11.0584   10.3161   -7.8649 C   0  0  0  0  0  0  0  0  0  0  0  0
   10.8574   10.0474   -9.2071 C   0  0  0  0  0  0  0  0  0  0  0  0
   11.7678   10.3284  -10.1687 N   0  0  0  0  0  0  0  0  0  0  0  0
   12.9318   10.8934   -9.7632 C   0  0  0  0  0  0  0  0  0  0  0  0
   20.0688   15.5260   -7.3076 N   0  0  0  0  0  0  0  0  0  0  0  0
   20.2899   16.2886   -6.0783 C   0  0  0  0  0  0  0  0  0  0  0  0
   21.2612   15.0490   -7.8669 C   0  0  0  0  0  0  0  0  0  0  0  0
   18.7463   15.0265   -7.7229 C   0  0  0  0  0  0  0  0  0  0  0  0
   22.3655   15.5407   -7.0171 C   0  0  0  0  0  0  0  0  0  0  0  0
   21.7782   16.2782   -5.9657 C   0  0  0  0  0  0  0  0  0  0  0  0
   22.5597   16.8918   -5.0055 C   0  0  0  0  0  0  0  0  0  0  0  0
   23.9529   16.7492   -5.1208 C   0  0  0  0  0  0  0  0  0  0  0  0
   24.5608   16.0256   -6.1833 C   0  0  0  0  0  0  0  0  0  0  0  0
   23.7553   15.3953   -7.1480 C   0  0  0  0  0  0  0  0  0  0  0  0
   21.3535   14.3499   -8.8684 O   0  0  0  0  0  0  0  0  0  0  0  0
   25.9280   15.9191   -6.3494 O   0  0  0  0  0  0  0  0  0  0  0  0
   26.7788   16.5579   -5.3855 C   0  0  0  0  0  0  0  0  0  0  0  0
   19.5751   13.4626   -3.8437 H   0  0  0  0  0  0  0  0  0  0  0  0
   19.7098   12.1610   -7.7458 H   0  0  0  0  0  0  0  0  0  0  0  0
   17.1330   13.6428   -9.4546 H   0  0  0  0  0  0  0  0  0  0  0  0
   15.0075   12.6153  -10.0520 H   0  0  0  0  0  0  0  0  0  0  0  0
   14.4608   11.2875   -5.9681 H   0  0  0  0  0  0  0  0  0  0  0  0
   16.6003   12.2968   -5.3582 H   0  0  0  0  0  0  0  0  0  0  0  0
   12.4149   11.1275   -6.4372 H   0  0  0  0  0  0  0  0  0  0  0  0
   10.2917   10.0747   -7.1323 H   0  0  0  0  0  0  0  0  0  0  0  0
    9.9226    9.5848   -9.5252 H   0  0  0  0  0  0  0  0  0  0  0  0
   13.6480   11.1078  -10.5580 H   0  0  0  0  0  0  0  0  0  0  0  0
   19.8412   15.8236   -5.1972 H   0  0  0  0  0  0  0  0  0  0  0  0
   19.8804   17.2983   -6.1743 H   0  0  0  0  0  0  0  0  0  0  0  0
   18.0100   15.8371   -7.5593 H   0  0  0  0  0  0  0  0  0  0  0  0
   18.7880   14.8817   -8.8205 H   0  0  0  0  0  0  0  0  0  0  0  0
   22.1070   17.4781   -4.1941 H   0  0  0  0  0  0  0  0  0  0  0  0
   24.5725   17.2219   -4.3654 H   0  0  0  0  0  0  0  0  0  0  0  0
   24.1961   14.8241   -7.9749 H   0  0  0  0  0  0  0  0  0  0  0  0
   27.8365   16.4027   -5.6519 H   0  0  0  0  0  0  0  0  0  0  0  0
   26.6238   16.1298   -4.3886 H   0  0  0  0  0  0  0  0  0  0  0  0
   26.6027   17.6398   -5.3589 H   0  0  0  0  0  0  0  0  0  0  0  0
  1  2  1  0  0  0  0
  1  5  1  0  0  0  0
  1 33  1  0  0  0  0
  2  3  1  0  0  0  0
  2  7  2  0  0  0  0
  3  4  1  0  0  0  0
  3  8  1  6  0  0  0
  3 23  1  0  0  0  0
  4  5  1  0  0  0  0
  4 34  1  0  0  0  0
  5  6  2  0  0  0  0
  8  9  2  0  0  0  0
  8 13  1  0  0  0  0
  9 10  1  0  0  0  0
  9 35  1  0  0  0  0
 10 11  2  0  0  0  0
 10 36  1  0  0  0  0
 11 12  1  0  0  0  0
 11 14  1  0  0  0  0
 12 13  2  0  0  0  0
 12 37  1  0  0  0  0
 13 38  1  0  0  0  0
 14 15  2  0  0  0  0
 14 19  1  0  0  0  0
 15 16  1  0  0  0  0
 15 39  1  0  0  0  0
 16 17  2  0  0  0  0
 16 40  1  0  0  0  0
 17 18  1  0  0  0  0
 17 41  1  0  0  0  0
 18 19  2  0  0  0  0
 19 42  1  0  0  0  0
 20 21  1  0  0  0  0
 20 22  1  0  0  0  0
 20 23  1  0  0  0  0
 21 25  1  0  0  0  0
 21 43  1  0  0  0  0
 21 44  1  0  0  0  0
 22 24  1  0  0  0  0
 22 30  2  0  0  0  0
 23 45  1  0  0  0  0
 23 46  1  0  0  0  0
 24 25  2  0  0  0  0
 24 29  1  0  0  0  0
 25 26  1  0  0  0  0
 26 27  2  0  0  0  0
 26 47  1  0  0  0  0
 27 28  1  0  0  0  0
 27 48  1  0  0  0  0
 28 29  2  0  0  0  0
 28 31  1  0  0  0  0
 29 49  1  0  0  0  0
 31 32  1  0  0  0  0
 32 50  1  0  0  0  0
 32 51  1  0  0  0  0
 32 52  1  0  0  0  0
M  END
$$$$
