ZGA
 OpenBabel04091916263D

 92 94  0  0  1  0  0  0  0  0999 V2000
   27.6070   -7.8163    8.8433 C   0  0  0  0  0  0  0  0  0  0  0  0
   16.6589  -15.5777   11.0831 C   0  0  0  0  0  0  0  0  0  0  0  0
   29.7987  -10.2639    6.1681 C   0  0  0  0  0  0  0  0  0  0  0  0
   15.6596  -12.0173    6.9859 C   0  0  0  0  0  0  0  0  0  0  0  0
   17.1369  -14.8623    8.5035 C   0  0  0  0  0  0  0  0  0  0  0  0
   27.3202  -10.8128   10.7755 C   0  0  0  0  0  0  0  0  0  0  0  0
   27.5944   -9.4217    5.9068 O   0  0  0  0  0  0  0  0  0  0  0  0
   18.4511   -7.9211    7.9624 O   0  0  0  0  0  0  0  0  0  0  0  0
   21.6478   -2.8941   10.9583 O   0  0  0  0  0  0  0  0  0  0  0  0
   19.2083   -5.4463   10.3407 O   0  0  0  0  0  0  0  0  0  0  0  0
   21.7661   -9.2592   12.2052 O   0  0  0  0  0  0  0  0  0  0  0  0
   23.8174   -3.5267   10.7911 O   0  0  0  0  0  0  0  0  0  0  0  0
   19.6243   -5.3823   12.5800 O   0  0  0  0  0  0  0  0  0  0  0  0
   19.6738   -8.4860   11.8646 O   0  0  0  0  0  0  0  0  0  0  0  0
   21.8562   -6.6251    7.1565 O   0  0  0  0  0  0  0  0  0  0  0  0
   22.2182   -5.9475   12.3596 O   0  0  0  0  0  0  0  0  0  0  0  0
   18.2192  -10.1314    8.7298 C   0  0  0  0  0  0  0  0  0  0  0  0
   16.9695  -10.2574    8.1956 C   0  0  0  0  0  0  0  0  0  0  0  0
   25.1317  -15.6740   11.5729 C   0  0  0  0  0  0  0  0  0  0  0  0
   26.5094  -15.5063   11.4559 C   0  0  0  0  0  0  0  0  0  0  0  0
   24.2682  -14.8372   10.8678 C   0  0  0  0  0  0  0  0  0  0  0  0
   27.0229  -14.5056   10.6322 C   0  0  0  0  0  0  0  0  0  0  0  0
   24.7812  -13.8405   10.0355 C   0  0  0  0  0  0  0  0  0  0  0  0
   15.8850  -14.3451   10.6774 C   0  0  0  0  0  0  0  0  0  0  0  0
   25.3136   -8.3658    9.4933 C   0  0  0  0  0  0  0  0  0  0  0  0
   24.4747   -7.5733    8.5187 C   0  0  0  0  0  0  0  0  0  0  0  0
   26.7396  -12.5884    9.0309 C   0  0  0  0  0  0  0  0  0  0  0  0
   16.8036  -12.5227    9.2214 C   0  0  0  0  0  0  0  0  0  0  0  0
   28.1625  -10.4185    7.8955 O   0  0  0  0  0  0  0  0  0  0  0  0
   20.2278   -8.9643    9.0408 O   0  0  0  0  0  0  0  0  0  0  0  0
   23.2610   -5.7021    9.3840 O   0  0  0  0  0  0  0  0  0  0  0  0
   22.9036   -7.7750   10.3820 O   0  0  0  0  0  0  0  0  0  0  0  0
   28.3944   -9.9851    6.6258 C   0  0  0  0  0  0  0  0  0  0  0  0
   18.9656   -8.8826    8.5705 C   0  0  0  0  0  0  0  0  0  0  0  0
   26.6404   -8.7435    8.8742 C   0  0  0  0  0  0  0  0  0  0  0  0
   22.5605   -3.7407   10.7175 C   0  0  0  0  0  0  0  0  0  0  0  0
   19.9543   -5.5563   11.3592 C   0  0  0  0  0  0  0  0  0  0  0  0
   20.9221   -8.4668   11.6721 C   0  0  0  0  0  0  0  0  0  0  0  0
   26.1654  -13.6625    9.9175 C   0  0  0  0  0  0  0  0  0  0  0  0
   16.0851  -11.4788    8.3561 C   0  0  2  0  0  0  0  0  0  0  0  0
   16.1846  -13.9127    9.2368 C   0  0  1  0  0  0  0  0  0  0  0  0
   26.4988  -11.1606    9.5275 C   0  0  2  0  0  0  0  0  0  0  0  0
   22.0247   -7.5211    8.2624 C   0  0  2  0  0  0  0  0  0  0  0  0
   26.8049  -10.1673    8.3813 C   0  0  2  0  0  0  0  0  0  0  0  0
   22.1186   -5.0958   10.0739 C   0  0  2  0  0  0  0  0  0  0  0  0
   20.8434   -7.6564    9.2240 C   0  0  2  0  0  0  0  0  0  0  0  0
   21.4478   -6.0065   11.1169 C   0  0  1  0  0  0  0  0  0  0  0  0
   23.1742   -7.1020    9.1718 C   0  0  2  0  0  0  0  0  0  0  0  0
   21.4812   -7.4756   10.6227 C   0  0  2  0  0  0  0  0  0  0  0  0
   27.4079   -6.8151    9.2095 H   0  0  0  0  0  0  0  0  0  0  0  0
   28.5848   -8.0364    8.4445 H   0  0  0  0  0  0  0  0  0  0  0  0
   16.4218  -15.8695   12.1044 H   0  0  0  0  0  0  0  0  0  0  0  0
   17.7350  -15.3839   11.0209 H   0  0  0  0  0  0  0  0  0  0  0  0
   16.4072  -16.4156   10.4267 H   0  0  0  0  0  0  0  0  0  0  0  0
   29.9031   -9.8601    5.1535 H   0  0  0  0  0  0  0  0  0  0  0  0
   29.9732  -11.3383    6.1216 H   0  0  0  0  0  0  0  0  0  0  0  0
   30.5389   -9.7676    6.8002 H   0  0  0  0  0  0  0  0  0  0  0  0
   15.1319  -11.2498    6.4142 H   0  0  0  0  0  0  0  0  0  0  0  0
   14.9610  -12.8570    7.0724 H   0  0  0  0  0  0  0  0  0  0  0  0
   16.5200  -12.3619    6.4031 H   0  0  0  0  0  0  0  0  0  0  0  0
   16.7224  -15.8715    8.4703 H   0  0  0  0  0  0  0  0  0  0  0  0
   18.1132  -14.8951    9.0069 H   0  0  0  0  0  0  0  0  0  0  0  0
   17.3133  -14.5394    7.4771 H   0  0  0  0  0  0  0  0  0  0  0  0
   27.1095  -11.5019   11.5937 H   0  0  0  0  0  0  0  0  0  0  0  0
   27.0689   -9.8100   11.1429 H   0  0  0  0  0  0  0  0  0  0  0  0
   28.3934  -10.8235   10.5624 H   0  0  0  0  0  0  0  0  0  0  0  0
   21.7703   -5.7378    7.5624 H   0  0  0  0  0  0  0  0  0  0  0  0
   21.6487   -6.4195   12.9974 H   0  0  0  0  0  0  0  0  0  0  0  0
   18.6674  -10.8918    9.3414 H   0  0  0  0  0  0  0  0  0  0  0  0
   16.5596   -9.4435    7.5939 H   0  0  0  0  0  0  0  0  0  0  0  0
   24.7290  -16.4502   12.2164 H   0  0  0  0  0  0  0  0  0  0  0  0
   27.1860  -16.1478   12.0101 H   0  0  0  0  0  0  0  0  0  0  0  0
   23.1919  -14.9494   10.9721 H   0  0  0  0  0  0  0  0  0  0  0  0
   28.0982  -14.3783   10.5481 H   0  0  0  0  0  0  0  0  0  0  0  0
   24.0943  -13.1967    9.4869 H   0  0  0  0  0  0  0  0  0  0  0  0
   16.1047  -13.5440   11.3919 H   0  0  0  0  0  0  0  0  0  0  0  0
   14.8101  -14.5411   10.7632 H   0  0  0  0  0  0  0  0  0  0  0  0
   24.7492   -9.2471    9.8103 H   0  0  0  0  0  0  0  0  0  0  0  0
   25.4882   -7.7761   10.4002 H   0  0  0  0  0  0  0  0  0  0  0  0
   24.2654   -8.2266    7.6604 H   0  0  0  0  0  0  0  0  0  0  0  0
   25.0416   -6.7276    8.1185 H   0  0  0  0  0  0  0  0  0  0  0  0
   26.2878  -12.7010    8.0371 H   0  0  0  0  0  0  0  0  0  0  0  0
   27.8153  -12.7534    8.9074 H   0  0  0  0  0  0  0  0  0  0  0  0
   16.8623  -12.1070   10.2360 H   0  0  0  0  0  0  0  0  0  0  0  0
   17.8394  -12.6386    8.8782 H   0  0  0  0  0  0  0  0  0  0  0  0
   15.1687  -11.1804    8.8859 H   0  0  0  0  0  0  0  0  0  0  0  0
   15.2309  -13.9082    8.7089 H   0  0  0  0  0  0  0  0  0  0  0  0
   25.4405  -11.0827    9.8021 H   0  0  0  0  0  0  0  0  0  0  0  0
   22.2301   -8.5081    7.8350 H   0  0  0  0  0  0  0  0  0  0  0  0
   26.0966  -10.3614    7.5612 H   0  0  0  0  0  0  0  0  0  0  0  0
   21.4109   -4.8450    9.2743 H   0  0  0  0  0  0  0  0  0  0  0  0
   20.1290   -6.8780    8.9891 H   0  0  0  0  0  0  0  0  0  0  0  0
  1 35  2  0  0  0  0
  1 50  1  0  0  0  0
  1 51  1  0  0  0  0
  2 24  1  0  0  0  0
  2 52  1  0  0  0  0
  2 53  1  0  0  0  0
  2 54  1  0  0  0  0
  3 33  1  0  0  0  0
  3 55  1  0  0  0  0
  3 56  1  0  0  0  0
  3 57  1  0  0  0  0
  4 40  1  0  0  0  0
  4 58  1  0  0  0  0
  4 59  1  0  0  0  0
  4 60  1  0  0  0  0
  5 41  1  0  0  0  0
  5 61  1  0  0  0  0
  5 62  1  0  0  0  0
  5 63  1  0  0  0  0
  6 42  1  0  0  0  0
  6 64  1  0  0  0  0
  6 65  1  0  0  0  0
  6 66  1  0  0  0  0
  7 33  2  0  0  0  0
  8 34  2  0  0  0  0
  9 36  2  0  0  0  0
 10 37  2  0  0  0  0
 11 38  2  0  0  0  0
 12 36  1  0  0  0  0
 13 37  1  0  0  0  0
 14 38  1  0  0  0  0
 15 43  1  0  0  0  0
 15 67  1  0  0  0  0
 16 68  1  0  0  0  0
 17 18  2  0  0  0  0
 17 34  1  0  0  0  0
 17 69  1  0  0  0  0
 18 40  1  0  0  0  0
 18 70  1  0  0  0  0
 19 20  2  0  0  0  0
 19 21  1  0  0  0  0
 19 71  1  0  0  0  0
 20 22  1  0  0  0  0
 20 72  1  0  0  0  0
 21 23  2  0  0  0  0
 21 73  1  0  0  0  0
 22 39  2  0  0  0  0
 22 74  1  0  0  0  0
 23 39  1  0  0  0  0
 23 75  1  0  0  0  0
 24 41  1  0  0  0  0
 24 76  1  0  0  0  0
 24 77  1  0  0  0  0
 25 26  1  0  0  0  0
 25 35  1  0  0  0  0
 25 78  1  0  0  0  0
 25 79  1  0  0  0  0
 26 80  1  0  0  0  0
 26 81  1  0  0  0  0
 27 39  1  0  0  0  0
 27 42  1  0  0  0  0
 27 82  1  0  0  0  0
 27 83  1  0  0  0  0
 28 40  1  0  0  0  0
 28 41  1  0  0  0  0
 28 84  1  0  0  0  0
 28 85  1  0  0  0  0
 29 33  1  0  0  0  0
 29 44  1  0  0  0  0
 30 34  1  0  0  0  0
 30 46  1  0  0  0  0
 31 45  1  0  0  0  0
 31 48  1  0  0  0  0
 32 48  1  0  0  0  0
 32 49  1  0  0  0  0
 35 44  1  0  0  0  0
 36 45  1  0  0  0  0
 37 47  1  0  0  0  0
 40 86  1  1  0  0  0
 41 87  1  6  0  0  0
 42 44  1  0  0  0  0
 42 88  1  1  0  0  0
 43 46  1  0  0  0  0
 43 48  1  0  0  0  0
 43 89  1  6  0  0  0
 44 90  1  6  0  0  0
 45 47  1  0  0  0  0
 45 91  1  6  0  0  0
 46 49  1  0  0  0  0
 46 92  1  6  0  0  0
 47 16  1  1  0  0  0
 47 49  1  0  0  0  0
 48 26  1  6  0  0  0
 49 38  1  1  0  0  0
M  END
$$$$
