ZH2
 OpenBabel04091914433D

 45 46  0  0  1  0  0  0  0  0999 V2000
   31.1799   -9.5656  -10.7504 C   0  0  0  0  0  0  0  0  0  0  0  0
   31.2285   -7.3261  -13.8011 C   0  0  0  0  0  0  0  0  0  0  0  0
   30.5606   -6.0853  -16.1826 C   0  0  0  0  0  0  0  0  0  0  0  0
   29.8713   -4.8254  -18.4216 C   0  0  0  0  0  0  0  0  0  0  0  0
   29.1174   -3.4417  -20.7838 C   0  0  0  0  0  0  0  0  0  0  0  0
   30.4569   -3.4722  -20.3691 C   0  0  0  0  0  0  0  0  0  0  0  0
   32.6213   -7.3893  -11.7458 C   0  0  0  0  0  0  0  0  0  0  0  0
   30.7632  -10.0948   -5.7203 C   0  0  2  0  0  0  0  0  0  0  0  0
   29.3416  -10.0655   -6.2281 C   0  0  0  0  0  0  0  0  0  0  0  0
   30.3688  -12.7586   -7.2681 O   0  0  0  0  0  0  0  0  0  0  0  0
   31.3762  -12.3291   -6.7071 C   0  0  0  0  0  0  0  0  0  0  0  0
   32.2991  -13.2465   -6.1601 N   0  0  0  0  0  0  0  0  0  0  0  0
   31.9913  -14.4435   -6.2458 O   0  0  0  0  0  0  0  0  0  0  0  0
   31.6774  -10.8277   -6.6882 C   0  0  1  0  0  0  0  0  0  0  0  0
   31.5148  -10.3176   -8.0533 N   0  0  0  0  0  0  0  0  0  0  0  0
   32.4909   -9.5422   -8.6248 C   0  0  0  0  0  0  0  0  0  0  0  0
   33.4731   -9.1726   -7.9999 O   0  0  0  0  0  0  0  0  0  0  0  0
   32.2270   -9.0305   -9.9951 C   0  0  0  0  0  0  0  0  0  0  0  0
   30.8527   -9.0161  -11.9990 C   0  0  0  0  0  0  0  0  0  0  0  0
   31.5751   -7.9290  -12.5084 C   0  0  0  0  0  0  0  0  0  0  0  0
   30.9476   -6.8044  -14.8380 C   0  0  0  0  0  0  0  0  0  0  0  0
   30.2529   -5.5239  -17.1900 C   0  0  0  0  0  0  0  0  0  0  0  0
   28.5321   -4.7945  -18.8302 C   0  0  0  0  0  0  0  0  0  0  0  0
   28.1590   -4.1084  -20.0065 C   0  0  0  0  0  0  0  0  0  0  0  0
   28.7471   -2.7615  -21.9337 N   0  0  0  0  0  0  0  0  0  0  0  0
   30.8324   -4.1581  -19.1926 C   0  0  0  0  0  0  0  0  0  0  0  0
   32.9603   -7.9402  -10.4930 C   0  0  0  0  0  0  0  0  0  0  0  0
   30.7785  -10.7509   -4.4610 O   0  0  0  0  0  0  0  0  0  0  0  0
   30.6131  -10.4086  -10.3680 H   0  0  0  0  0  0  0  0  0  0  0  0
   31.2196   -2.9613  -20.9567 H   0  0  0  0  0  0  0  0  0  0  0  0
   33.1728   -6.5276  -12.1199 H   0  0  0  0  0  0  0  0  0  0  0  0
   31.1228   -9.0678   -5.5855 H   0  0  0  0  0  0  0  0  0  0  0  0
   28.7054   -9.5446   -5.5142 H   0  0  0  0  0  0  0  0  0  0  0  0
   28.9728  -11.0877   -6.3451 H   0  0  0  0  0  0  0  0  0  0  0  0
   29.3118   -9.5523   -7.1882 H   0  0  0  0  0  0  0  0  0  0  0  0
   32.7038  -10.6805   -6.3609 H   0  0  0  0  0  0  0  0  0  0  0  0
   30.6259  -10.5073   -8.5039 H   0  0  0  0  0  0  0  0  0  0  0  0
   30.0229   -9.4429  -12.5575 H   0  0  0  0  0  0  0  0  0  0  0  0
   27.7670   -5.2939  -18.2376 H   0  0  0  0  0  0  0  0  0  0  0  0
   27.1122   -4.0985  -20.3091 H   0  0  0  0  0  0  0  0  0  0  0  0
   29.4391   -2.2809  -22.4955 H   0  0  0  0  0  0  0  0  0  0  0  0
   27.7790   -2.7342  -22.2294 H   0  0  0  0  0  0  0  0  0  0  0  0
   31.8781   -4.1560  -18.8860 H   0  0  0  0  0  0  0  0  0  0  0  0
   33.7781   -7.5091   -9.9129 H   0  0  0  0  0  0  0  0  0  0  0  0
   30.1831  -10.2518   -3.8753 H   0  0  0  0  0  0  0  0  0  0  0  0
  1 18  2  0  0  0  0
  1 19  1  0  0  0  0
  1 29  1  0  0  0  0
  2 20  1  0  0  0  0
  2 21  3  0  0  0  0
  3 21  1  0  0  0  0
  3 22  3  0  0  0  0
  4 22  1  0  0  0  0
  4 23  2  0  0  0  0
  4 26  1  0  0  0  0
  5  6  1  0  0  0  0
  5 24  2  0  0  0  0
  5 25  1  0  0  0  0
  6 26  2  0  0  0  0
  6 30  1  0  0  0  0
  7 20  1  0  0  0  0
  7 27  2  0  0  0  0
  7 31  1  0  0  0  0
  8  9  1  0  0  0  0
  8 14  1  0  0  0  0
  8 28  1  0  0  0  0
  8 32  1  1  0  0  0
  9 33  1  0  0  0  0
  9 34  1  0  0  0  0
  9 35  1  0  0  0  0
 10 11  2  0  0  0  0
 11 12  1  0  0  0  0
 11 14  1  0  0  0  0
 12 13  2  0  0  0  0
 14 15  1  0  0  0  0
 14 36  1  1  0  0  0
 15 16  1  0  0  0  0
 15 37  1  0  0  0  0
 16 17  2  0  0  0  0
 16 18  1  0  0  0  0
 18 27  1  0  0  0  0
 19 20  2  0  0  0  0
 19 38  1  0  0  0  0
 23 24  1  0  0  0  0
 23 39  1  0  0  0  0
 24 40  1  0  0  0  0
 25 41  1  0  0  0  0
 25 42  1  0  0  0  0
 26 43  1  0  0  0  0
 27 44  1  0  0  0  0
 28 45  1  0  0  0  0
M  END
$$$$
