ZMR
 OpenBabel04091911153D

 43 43  0  0  1  0  0  0  0  0999 V2000
  -30.2213  -53.0994    6.5642 C   0  0  0  0  0  0  0  0  0  0  0  0
  -31.3302  -52.5100    6.4674 O   0  0  0  0  0  0  0  0  0  0  0  0
  -29.0702  -52.7713    6.1691 O   0  0  0  0  0  0  0  0  0  0  0  0
  -30.2593  -54.4177    7.4161 C   0  0  0  0  0  0  0  0  0  0  0  0
  -29.1313  -55.0818    7.7812 C   0  0  0  0  0  0  0  0  0  0  0  0
  -29.2040  -56.1496    8.7991 C   0  0  1  0  0  0  0  0  0  0  0  0
  -30.5684  -56.8546    8.7484 C   0  0  1  0  0  0  0  0  0  0  0  0
  -30.6687  -57.8571    9.8190 N   0  0  0  0  0  0  0  0  0  0  0  0
  -30.6166  -59.2046    9.5524 C   0  0  0  0  0  0  0  0  0  0  0  0
  -30.4348  -59.6807    8.4377 O   0  0  0  0  0  0  0  0  0  0  0  0
  -30.6649  -60.0500   10.7888 C   0  0  0  0  0  0  0  0  0  0  0  0
  -31.6601  -55.7934    8.8331 C   0  0  1  0  0  0  0  0  0  0  0  0
  -31.5186  -54.8035    7.8233 O   0  0  0  0  0  0  0  0  0  0  0  0
  -33.0565  -56.4205    8.6661 C   0  0  2  0  0  0  0  0  0  0  0  0
  -33.1341  -57.0171    7.3635 O   0  0  0  0  0  0  0  0  0  0  0  0
  -34.1443  -55.3531    8.8792 C   0  0  2  0  0  0  0  0  0  0  0  0
  -34.0119  -54.7989   10.2034 O   0  0  0  0  0  0  0  0  0  0  0  0
  -35.5472  -55.9504    8.7593 C   0  0  0  0  0  0  0  0  0  0  0  0
  -35.8338  -56.8017    9.8701 O   0  0  0  0  0  0  0  0  0  0  0  0
  -28.1431  -57.1312    8.5474 N   0  0  0  0  0  0  0  0  0  0  0  0
  -27.5128  -57.8680    9.4589 C   0  0  0  0  0  0  0  0  0  0  0  0
  -27.6657  -57.6920   10.7805 N   0  0  0  0  0  0  0  0  0  0  0  0
  -26.6926  -58.8362    9.0392 N   0  0  0  0  0  0  0  0  0  0  0  0
  -28.1813  -54.7556    7.3554 H   0  0  0  0  0  0  0  0  0  0  0  0
  -29.0232  -55.6744    9.7742 H   0  0  0  0  0  0  0  0  0  0  0  0
  -30.6212  -57.3650    7.7756 H   0  0  0  0  0  0  0  0  0  0  0  0
  -30.8604  -57.5377   10.7604 H   0  0  0  0  0  0  0  0  0  0  0  0
  -30.6092  -61.1052   10.5077 H   0  0  0  0  0  0  0  0  0  0  0  0
  -31.5925  -59.8710   11.3387 H   0  0  0  0  0  0  0  0  0  0  0  0
  -29.8044  -59.8078   11.4188 H   0  0  0  0  0  0  0  0  0  0  0  0
  -31.5907  -55.2783    9.8001 H   0  0  0  0  0  0  0  0  0  0  0  0
  -33.1816  -57.2197    9.4042 H   0  0  0  0  0  0  0  0  0  0  0  0
  -34.0172  -57.3932    7.2322 H   0  0  0  0  0  0  0  0  0  0  0  0
  -34.0329  -54.5576    8.1324 H   0  0  0  0  0  0  0  0  0  0  0  0
  -34.6366  -54.0529   10.2579 H   0  0  0  0  0  0  0  0  0  0  0  0
  -35.6646  -56.5360    7.8465 H   0  0  0  0  0  0  0  0  0  0  0  0
  -36.2980  -55.1559    8.7433 H   0  0  0  0  0  0  0  0  0  0  0  0
  -35.7222  -56.2522   10.6691 H   0  0  0  0  0  0  0  0  0  0  0  0
  -28.0142  -57.3691    7.5788 H   0  0  0  0  0  0  0  0  0  0  0  0
  -27.1546  -58.2447   11.4498 H   0  0  0  0  0  0  0  0  0  0  0  0
  -26.6025  -59.0306    8.0478 H   0  0  0  0  0  0  0  0  0  0  0  0
  -26.1897  -59.4337    9.6738 H   0  0  0  0  0  0  0  0  0  0  0  0
  -28.2654  -56.9624   11.1362 H   0  0  0  0  0  0  0  0  0  0  0  0
  1  2  2  0  0  0  0
  1  3  1  0  0  0  0
  1  4  1  0  0  0  0
  4  5  2  0  0  0  0
  4 13  1  0  0  0  0
  5  6  1  0  0  0  0
  5 24  1  0  0  0  0
  6  7  1  0  0  0  0
  6 20  1  0  0  0  0
  6 25  1  1  0  0  0
  7  8  1  0  0  0  0
  7 12  1  0  0  0  0
  7 26  1  6  0  0  0
  8  9  1  0  0  0  0
  8 27  1  0  0  0  0
  9 10  2  0  0  0  0
  9 11  1  0  0  0  0
 11 28  1  0  0  0  0
 11 29  1  0  0  0  0
 11 30  1  0  0  0  0
 12 13  1  0  0  0  0
 12 14  1  0  0  0  0
 12 31  1  1  0  0  0
 14 15  1  0  0  0  0
 14 16  1  0  0  0  0
 14 32  1  1  0  0  0
 15 33  1  0  0  0  0
 16 17  1  0  0  0  0
 16 18  1  0  0  0  0
 16 34  1  6  0  0  0
 17 35  1  0  0  0  0
 18 19  1  0  0  0  0
 18 36  1  0  0  0  0
 18 37  1  0  0  0  0
 19 38  1  0  0  0  0
 20 21  1  0  0  0  0
 20 39  1  0  0  0  0
 21 22  2  0  0  0  0
 21 23  1  0  0  0  0
 22 40  1  0  0  0  0
 22 43  1  0  0  0  0
 23 41  1  0  0  0  0
 23 42  1  0  0  0  0
M  END
$$$$
