ZOF
 OpenBabel04091916393D

 52 53  0  0  1  0  0  0  0  0999 V2000
   24.3879  -67.8564    6.8138 C   0  0  0  0  0  0  0  0  0  0  0  0
   23.3540  -68.2786    6.3337 O   0  0  0  0  0  0  0  0  0  0  0  0
   25.7267  -68.5123    6.6566 C   0  0  0  0  0  0  0  0  0  0  0  0
   25.6696  -69.8142    7.3999 C   0  0  0  0  0  0  0  0  0  0  0  0
   26.8909  -70.5912    7.0168 C   0  0  0  0  0  0  0  0  0  0  0  0
   27.0082  -71.7902    7.9084 C   0  0  0  0  0  0  0  0  0  0  0  0
   28.1427  -72.6217    7.3622 C   0  0  0  0  0  0  0  0  0  0  0  0
   28.3170  -73.8314    8.1272 N   0  0  0  0  0  0  0  0  0  0  0  0
   27.4922  -74.9259    8.0479 C   0  0  0  0  0  0  0  0  0  0  0  0
   26.5205  -74.9764    7.3481 O   0  0  0  0  0  0  0  0  0  0  0  0
   27.9199  -76.1115    8.9154 C   0  0  0  0  0  0  0  0  0  0  0  0
   26.7908  -76.6412    9.7845 C   0  0  0  0  0  0  0  0  0  0  0  0
   26.4086  -75.7425   10.9470 C   0  0  0  0  0  0  0  0  0  0  0  0
   25.2240  -76.3605   11.6938 C   0  0  0  0  0  0  0  0  0  0  0  0
   24.8175  -75.5070   12.8789 C   0  0  2  0  0  0  0  0  0  0  0  0
   25.9969  -75.6289   14.2467 S   0  0  0  0  0  0  0  0  0  0  0  0
   24.8153  -74.8534   15.3438 C   0  0  0  0  0  0  0  0  0  0  0  0
   23.4435  -75.3958   14.9879 C   0  0  1  0  0  0  0  0  0  0  0  0
   23.4596  -75.8563   13.5103 C   0  0  2  0  0  0  0  0  0  0  0  0
   23.2190  -77.3045   13.5765 N   0  0  0  0  0  0  0  0  0  0  0  0
   23.0729  -77.6883   14.8661 C   0  0  0  0  0  0  0  0  0  0  0  0
   22.9457  -78.9620   15.2250 N   0  0  0  0  0  0  0  0  0  0  0  0
   23.2135  -76.6553   15.7359 N   0  0  0  0  0  0  0  0  0  0  0  0
   24.3787  -66.9636    7.4600 H   0  0  0  0  0  0  0  0  0  0  0  0
   26.5216  -67.8803    7.0728 H   0  0  0  0  0  0  0  0  0  0  0  0
   25.9373  -68.6859    5.5946 H   0  0  0  0  0  0  0  0  0  0  0  0
   24.7713  -70.3797    7.1221 H   0  0  0  0  0  0  0  0  0  0  0  0
   25.6574  -69.6399    8.4826 H   0  0  0  0  0  0  0  0  0  0  0  0
   27.7826  -69.9616    7.1260 H   0  0  0  0  0  0  0  0  0  0  0  0
   26.8054  -70.9137    5.9711 H   0  0  0  0  0  0  0  0  0  0  0  0
   26.0615  -72.3453    7.9024 H   0  0  0  0  0  0  0  0  0  0  0  0
   27.2077  -71.4608    8.9376 H   0  0  0  0  0  0  0  0  0  0  0  0
   29.0813  -72.0534    7.4160 H   0  0  0  0  0  0  0  0  0  0  0  0
   27.9512  -72.8791    6.3096 H   0  0  0  0  0  0  0  0  0  0  0  0
   29.0898  -73.8518    8.7603 H   0  0  0  0  0  0  0  0  0  0  0  0
   28.7754  -75.8582    9.5458 H   0  0  0  0  0  0  0  0  0  0  0  0
   28.2104  -76.9184    8.2305 H   0  0  0  0  0  0  0  0  0  0  0  0
   27.0999  -77.6061   10.2064 H   0  0  0  0  0  0  0  0  0  0  0  0
   25.8985  -76.7890    9.1692 H   0  0  0  0  0  0  0  0  0  0  0  0
   26.1279  -74.7530   10.5702 H   0  0  0  0  0  0  0  0  0  0  0  0
   27.2613  -75.6403   11.6270 H   0  0  0  0  0  0  0  0  0  0  0  0
   25.5004  -77.3743   12.0153 H   0  0  0  0  0  0  0  0  0  0  0  0
   24.3794  -76.4410   10.9955 H   0  0  0  0  0  0  0  0  0  0  0  0
   24.7686  -74.4637   12.5681 H   0  0  0  0  0  0  0  0  0  0  0  0
   24.8390  -73.7839   15.1632 H   0  0  0  0  0  0  0  0  0  0  0  0
   25.0563  -75.1078   16.3673 H   0  0  0  0  0  0  0  0  0  0  0  0
   22.6467  -74.6692   15.2314 H   0  0  0  0  0  0  0  0  0  0  0  0
   22.6181  -75.4322   12.9516 H   0  0  0  0  0  0  0  0  0  0  0  0
   23.4249  -77.9380   12.8097 H   0  0  0  0  0  0  0  0  0  0  0  0
   23.2570  -79.2655   16.1370 H   0  0  0  0  0  0  0  0  0  0  0  0
   23.4423  -76.7722   16.7170 H   0  0  0  0  0  0  0  0  0  0  0  0
   22.6954  -79.6822   14.5559 H   0  0  0  0  0  0  0  0  0  0  0  0
  1  2  2  0  0  0  0
  1  3  1  0  0  0  0
  1 24  1  0  0  0  0
  3  4  1  0  0  0  0
  3 25  1  0  0  0  0
  3 26  1  0  0  0  0
  4  5  1  0  0  0  0
  4 27  1  0  0  0  0
  4 28  1  0  0  0  0
  5  6  1  0  0  0  0
  5 29  1  0  0  0  0
  5 30  1  0  0  0  0
  6  7  1  0  0  0  0
  6 31  1  0  0  0  0
  6 32  1  0  0  0  0
  7  8  1  0  0  0  0
  7 33  1  0  0  0  0
  7 34  1  0  0  0  0
  8  9  1  0  0  0  0
  8 35  1  0  0  0  0
  9 10  2  0  0  0  0
  9 11  1  0  0  0  0
 11 12  1  0  0  0  0
 11 36  1  0  0  0  0
 11 37  1  0  0  0  0
 12 13  1  0  0  0  0
 12 38  1  0  0  0  0
 12 39  1  0  0  0  0
 13 14  1  0  0  0  0
 13 40  1  0  0  0  0
 13 41  1  0  0  0  0
 14 15  1  0  0  0  0
 14 42  1  0  0  0  0
 14 43  1  0  0  0  0
 15 16  1  0  0  0  0
 15 19  1  0  0  0  0
 15 44  1  6  0  0  0
 16 17  1  0  0  0  0
 17 18  1  0  0  0  0
 17 45  1  0  0  0  0
 17 46  1  0  0  0  0
 18 19  1  0  0  0  0
 18 23  1  0  0  0  0
 18 47  1  1  0  0  0
 19 20  1  0  0  0  0
 19 48  1  6  0  0  0
 20 21  1  0  0  0  0
 20 49  1  0  0  0  0
 21 22  2  0  0  0  0
 21 23  1  0  0  0  0
 22 50  1  0  0  0  0
 22 52  1  0  0  0  0
 23 51  1  0  0  0  0
M  END
$$$$
