ZT2
 OpenBabel04091916493D

 34 37  0  0  0  0  0  0  0  0999 V2000
  -31.0123   28.6087    0.4608 C   0  0  0  0  0  0  0  0  0  0  0  0
  -31.3048   27.4583   -0.2792 C   0  0  0  0  0  0  0  0  0  0  0  0
  -31.8136   29.7484    0.3514 C   0  0  0  0  0  0  0  0  0  0  0  0
  -33.2584   32.2153    1.8932 C   0  0  0  0  0  0  0  0  0  0  0  0
  -32.4095   27.4287   -1.1319 C   0  0  0  0  0  0  0  0  0  0  0  0
  -32.4889   32.8215    2.8827 C   0  0  0  0  0  0  0  0  0  0  0  0
  -32.9231   29.7280   -0.4821 C   0  0  0  0  0  0  0  0  0  0  0  0
  -33.3644   32.7666    0.5888 C   0  0  0  0  0  0  0  0  0  0  0  0
  -32.7496   34.0035    0.2868 C   0  0  0  0  0  0  0  0  0  0  0  0
  -33.2044   28.5669   -1.2265 C   0  0  0  0  0  0  0  0  0  0  0  0
  -31.8757   34.0051    2.5566 C   0  0  0  0  0  0  0  0  0  0  0  0
  -32.0132   34.5919    1.3121 C   0  0  0  0  0  0  0  0  0  0  0  0
  -33.9486   30.7375   -0.7909 C   0  0  0  0  0  0  0  0  0  0  0  0
  -34.9189   30.1047   -1.7590 C   0  0  0  0  0  0  0  0  0  0  0  0
  -34.1503   32.0010   -0.3948 C   0  0  0  0  0  0  0  0  0  0  0  0
  -32.8317   34.6665   -1.0664 C   0  0  0  0  0  0  0  0  0  0  0  0
  -34.4173   28.7188   -2.1060 C   0  0  0  0  0  0  0  0  0  0  0  0
  -30.6148   35.7427    2.4936 C   0  0  0  0  0  0  0  0  0  0  0  0
  -31.7703   35.1923   -1.5277 O   0  0  0  0  0  0  0  0  0  0  0  0
  -35.9699   30.5784   -2.1557 O   0  0  0  0  0  0  0  0  0  0  0  0
  -33.9569   34.6445   -1.6583 O   0  0  0  0  0  0  0  0  0  0  0  0
  -31.0784   34.7222    3.3986 O   0  0  0  0  0  0  0  0  0  0  0  0
  -31.3522   35.7865    1.2694 O   0  0  0  0  0  0  0  0  0  0  0  0
  -30.1472   28.6266    1.1189 H   0  0  0  0  0  0  0  0  0  0  0  0
  -30.6618   26.5868   -0.1962 H   0  0  0  0  0  0  0  0  0  0  0  0
  -31.5377   30.6298    0.9174 H   0  0  0  0  0  0  0  0  0  0  0  0
  -33.7450   31.2683    2.1190 H   0  0  0  0  0  0  0  0  0  0  0  0
  -32.6378   26.5419   -1.7070 H   0  0  0  0  0  0  0  0  0  0  0  0
  -32.3666   32.3721    3.8593 H   0  0  0  0  0  0  0  0  0  0  0  0
  -34.9709   32.5741   -0.8347 H   0  0  0  0  0  0  0  0  0  0  0  0
  -35.1773   27.9765   -1.8481 H   0  0  0  0  0  0  0  0  0  0  0  0
  -34.1434   28.6808   -3.1626 H   0  0  0  0  0  0  0  0  0  0  0  0
  -29.5600   35.5477    2.2626 H   0  0  0  0  0  0  0  0  0  0  0  0
  -30.6895   36.7141    2.9930 H   0  0  0  0  0  0  0  0  0  0  0  0
  1  2  2  0  0  0  0
  1  3  1  0  0  0  0
  1 24  1  0  0  0  0
  2  5  1  0  0  0  0
  2 25  1  0  0  0  0
  3  7  2  0  0  0  0
  3 26  1  0  0  0  0
  4  6  2  0  0  0  0
  4  8  1  0  0  0  0
  4 27  1  0  0  0  0
  5 10  2  0  0  0  0
  5 28  1  0  0  0  0
  6 11  1  0  0  0  0
  6 29  1  0  0  0  0
  7 10  1  0  0  0  0
  7 13  1  0  0  0  0
  8  9  2  0  0  0  0
  8 15  1  0  0  0  0
  9 12  1  0  0  0  0
  9 16  1  0  0  0  0
 10 17  1  0  0  0  0
 11 12  2  0  0  0  0
 11 22  1  0  0  0  0
 12 23  1  0  0  0  0
 13 14  1  0  0  0  0
 13 15  2  0  0  0  0
 14 17  1  0  0  0  0
 14 20  2  0  0  0  0
 15 30  1  0  0  0  0
 16 19  2  0  0  0  0
 16 21  1  0  0  0  0
 17 31  1  0  0  0  0
 17 32  1  0  0  0  0
 18 22  1  0  0  0  0
 18 23  1  0  0  0  0
 18 33  1  0  0  0  0
 18 34  1  0  0  0  0
M  END
$$$$
