1BYQ_ADP_A_2001
 OpenBabel03301716573D

 39 41  0  0  1  0  0  0  0  0999 V2000
   41.1284  -47.1333   69.0906 P   0  0  0  0  0  0  0  0  0  0  0  0
   40.1976  -46.0387   68.5913 O   0  0  0  0  0  0  0  0  0  0  0  0
   42.5309  -47.0752   68.4844 O   0  0  0  0  0  0  0  0  0  0  0  0
   41.1915  -47.2375   70.6182 O   0  0  0  0  0  0  0  0  0  0  0  0
   39.4463  -49.0591   67.5618 P   0  0  0  0  0  0  0  0  0  0  0  0
   38.0759  -48.4321   67.7059 O   0  0  0  0  0  0  0  0  0  0  0  0
   39.4728  -50.5982   67.5240 O   0  0  0  0  0  0  0  0  0  0  0  0
   40.5407  -48.5568   68.6076 O   0  0  0  0  0  0  0  0  0  0  0  0
   40.0641  -48.6048   66.1122 O   0  0  0  0  0  0  0  0  0  0  0  0
   41.2668  -49.2246   65.7143 C   0  0  0  0  0  0  0  0  0  0  0  0
   42.0276  -48.3589   64.7055 C   0  0  1  0  0  0  0  0  0  0  0  0
   41.4265  -48.4771   63.3715 O   0  0  0  0  0  0  0  0  0  0  0  0
   42.1092  -46.8581   64.9991 C   0  0  1  0  0  0  0  0  0  0  0  0
   43.2002  -46.4143   65.7799 O   0  0  0  0  0  0  0  0  0  0  0  0
   42.3471  -46.2807   63.6123 C   0  0  1  0  0  0  0  0  0  0  0  0
   43.7517  -46.3889   63.2262 O   0  0  0  0  0  0  0  0  0  0  0  0
   41.5384  -47.1955   62.7080 C   0  0  2  0  0  0  0  0  0  0  0  0
   40.2461  -46.6681   62.3152 N   0  3  0  0  0  0  0  0  0  0  0  0
   38.9997  -47.1039   62.6960 C   0  0  0  0  0  0  0  0  0  0  0  0
   38.0370  -46.3937   62.1407 N   0  0  0  0  0  0  0  0  0  0  0  0
   38.6950  -45.4210   61.4094 C   0  0  0  0  0  0  0  0  0  0  0  0
   38.2167  -44.3340   60.6640 C   0  0  0  0  0  0  0  0  0  0  0  0
   36.8751  -44.0337   60.4826 N   0  0  0  0  0  0  0  0  0  0  0  0
   39.1343  -43.5331   60.0353 N   0  0  0  0  0  0  0  0  0  0  0  0
   40.4282  -43.8568   60.1592 C   0  0  0  0  0  0  0  0  0  0  0  0
   41.0052  -44.8794   60.8312 N   0  0  0  0  0  0  0  0  0  0  0  0
   40.0611  -45.6089   61.4701 C   0  0  0  0  0  0  0  0  0  0  0  0
   41.0048  -50.1794   65.2334 H   0  0  0  0  0  0  0  0  0  0  0  0
   41.9067  -49.4479   66.5749 H   0  0  0  0  0  0  0  0  0  0  0  0
   43.0344  -48.7860   64.6152 H   0  0  0  0  0  0  0  0  0  0  0  0
   41.1675  -46.4868   65.4130 H   0  0  0  0  0  0  0  0  0  0  0  0
   43.9972  -46.9189   65.5912 H   0  0  0  0  0  0  0  0  0  0  0  0
   42.0931  -45.2200   63.5583 H   0  0  0  0  0  0  0  0  0  0  0  0
   44.0082  -47.3160   63.3674 H   0  0  0  0  0  0  0  0  0  0  0  0
   42.0786  -47.3844   61.7737 H   0  0  0  0  0  0  0  0  0  0  0  0
   38.8639  -47.9404   63.3773 H   0  0  0  0  0  0  0  0  0  0  0  0
   36.6798  -43.0935   60.1795 H   0  0  0  0  0  0  0  0  0  0  0  0
   36.2593  -44.4788   61.1641 H   0  0  0  0  0  0  0  0  0  0  0  0
   41.1292  -43.1968   59.6410 H   0  0  0  0  0  0  0  0  0  0  0  0
  1  2  1  0  0  0  0
  1  3  1  0  0  0  0
  1  4  1  0  0  0  0
  1  8  1  0  0  0  0
  5  6  1  0  0  0  0
  5  7  1  0  0  0  0
  5  8  1  0  0  0  0
  5  9  1  0  0  0  0
  9 10  1  0  0  0  0
 10 11  1  0  0  0  0
 10 28  1  0  0  0  0
 10 29  1  0  0  0  0
 11 12  1  0  0  0  0
 11 13  1  0  0  0  0
 11 30  1  6  0  0  0
 12 17  1  0  0  0  0
 13 14  1  0  0  0  0
 13 15  1  0  0  0  0
 13 31  1  1  0  0  0
 14 32  1  0  0  0  0
 15 16  1  0  0  0  0
 15 17  1  0  0  0  0
 15 33  1  6  0  0  0
 16 34  1  0  0  0  0
 17 18  1  0  0  0  0
 17 35  1  6  0  0  0
 18 19  2  0  0  0  0
 18 27  1  0  0  0  0
 19 20  1  0  0  0  0
 19 36  1  0  0  0  0
 20 21  1  0  0  0  0
 21 22  2  0  0  0  0
 21 27  1  0  0  0  0
 22 23  1  0  0  0  0
 22 24  1  0  0  0  0
 23 37  1  0  0  0  0
 23 38  1  0  0  0  0
 24 25  2  0  0  0  0
 25 26  1  0  0  0  0
 25 39  1  0  0  0  0
 26 27  2  0  0  0  0
M  CHG  1  18   1
M  END
$$$$
