4O04_2Q8_A_4000
 OpenBabel03301717333D

 52 55  0  0  1  0  0  0  0  0999 V2000
    8.6788  -12.3421  -24.1945 O   0  0  0  0  0  0  0  0  0  0  0  0
    7.5094  -12.6969  -24.3143 C   0  0  0  0  0  0  0  0  0  0  0  0
    7.1681  -14.1412  -24.6759 C   0  0  0  0  0  0  0  0  0  0  0  0
    5.9003  -14.2947  -25.5231 C   0  0  0  0  0  0  0  0  0  0  0  0
    5.5518  -15.7864  -25.6394 C   0  0  0  0  0  0  0  0  0  0  0  0
    6.1378  -13.7610  -26.9342 C   0  0  0  0  0  0  0  0  0  0  0  0
    6.3907  -11.7721  -24.1084 C   0  0  1  0  0  0  0  0  0  0  0  0
    6.3292  -10.4041  -23.7457 C   0  0  1  0  0  0  0  0  0  0  0  0
    7.4230   -9.4522  -23.4017 C   0  0  0  0  0  0  0  0  0  0  0  0
    6.9482   -7.9994  -23.4556 C   0  0  0  0  0  0  0  0  0  0  0  0
    5.6060   -7.8125  -22.7996 N   0  3  1  0  0  0  0  0  0  0  0  0
    5.2311   -6.3664  -22.7681 C   0  0  0  0  0  0  0  0  0  0  0  0
    4.5341   -8.6340  -23.4928 C   0  0  0  0  0  0  0  0  0  0  0  0
    4.9998  -10.0143  -23.7918 C   0  0  1  0  0  0  0  0  0  0  0  0
    4.2254  -11.1069  -24.1749 N   0  3  2  0  0  0  0  0  0  0  0  0
    5.0911  -12.1800  -24.3603 C   0  0  1  0  0  0  0  0  0  0  0  0
    4.7235  -13.5544  -24.8513 C   0  0  0  0  0  0  0  0  0  0  0  0
    2.8193  -11.1207  -24.3914 C   0  0  1  0  0  0  0  0  0  0  0  0
    2.2378  -10.1672  -25.2216 C   0  0  0  0  0  0  0  0  0  0  0  0
    0.8574  -10.1818  -25.4520 C   0  0  0  0  0  0  0  0  0  0  0  0
    0.0447  -11.1459  -24.8512 C   0  0  1  0  0  0  0  0  0  0  0  0
   -1.4146  -11.1438  -25.1817 C   0  0  0  0  0  0  0  0  0  0  0  0
   -2.2440  -11.7315  -24.2643 N   0  0  0  0  0  0  0  0  0  0  0  0
   -1.8314  -10.6476  -26.1954 O   0  0  0  0  0  0  0  0  0  0  0  0
    0.6297  -12.0924  -24.0058 C   0  0  0  0  0  0  0  0  0  0  0  0
    2.0140  -12.0883  -23.7792 C   0  0  0  0  0  0  0  0  0  0  0  0
    7.0438  -14.7040  -23.7438 H   0  0  0  0  0  0  0  0  0  0  0  0
    8.0196  -14.5546  -25.2280 H   0  0  0  0  0  0  0  0  0  0  0  0
    6.3670  -16.3406  -26.1212 H   0  0  0  0  0  0  0  0  0  0  0  0
    4.6401  -15.9225  -26.2342 H   0  0  0  0  0  0  0  0  0  0  0  0
    5.3827  -16.2163  -24.6449 H   0  0  0  0  0  0  0  0  0  0  0  0
    6.9619  -14.2977  -27.4192 H   0  0  0  0  0  0  0  0  0  0  0  0
    6.3892  -12.6989  -26.8967 H   0  0  0  0  0  0  0  0  0  0  0  0
    5.2369  -13.8841  -27.5472 H   0  0  0  0  0  0  0  0  0  0  0  0
    8.2388   -9.5547  -24.1190 H   0  0  0  0  0  0  0  0  0  0  0  0
    7.8062   -9.6658  -22.3998 H   0  0  0  0  0  0  0  0  0  0  0  0
    6.8306   -7.6780  -24.4921 H   0  0  0  0  0  0  0  0  0  0  0  0
    7.6489   -7.3460  -22.9311 H   0  0  0  0  0  0  0  0  0  0  0  0
    5.6846   -8.1488  -21.8322 H   0  0  0  0  0  0  0  0  0  0  0  0
    5.1517   -6.0111  -23.7974 H   0  0  0  0  0  0  0  0  0  0  0  0
    6.0090   -5.8208  -22.2328 H   0  0  0  0  0  0  0  0  0  0  0  0
    4.2755   -6.2756  -22.2532 H   0  0  0  0  0  0  0  0  0  0  0  0
    4.3171   -8.0955  -24.4163 H   0  0  0  0  0  0  0  0  0  0  0  0
    3.6828   -8.6223  -22.8149 H   0  0  0  0  0  0  0  0  0  0  0  0
    4.4001  -14.1504  -23.9919 H   0  0  0  0  0  0  0  0  0  0  0  0
    3.9104  -13.4828  -25.5740 H   0  0  0  0  0  0  0  0  0  0  0  0
    2.8452   -9.4277  -25.7348 H   0  0  0  0  0  0  0  0  0  0  0  0
    0.4104   -9.4320  -26.1030 H   0  0  0  0  0  0  0  0  0  0  0  0
   -3.2421  -11.7538  -24.4577 H   0  0  0  0  0  0  0  0  0  0  0  0
   -1.8966  -12.1315  -23.4112 H   0  0  0  0  0  0  0  0  0  0  0  0
    0.0195  -12.8575  -23.5322 H   0  0  0  0  0  0  0  0  0  0  0  0
    2.4422  -12.8261  -23.1059 H   0  0  0  0  0  0  0  0  0  0  0  0
  1  2  2  0  0  0  0
  2  3  1  0  0  0  0
  3  4  1  0  0  0  0
  3 27  1  0  0  0  0
  3 28  1  0  0  0  0
  4  5  1  0  0  0  0
  4  6  1  0  0  0  0
  4 17  1  0  0  0  0
  5 29  1  0  0  0  0
  5 30  1  0  0  0  0
  5 31  1  0  0  0  0
  6 32  1  0  0  0  0
  6 33  1  0  0  0  0
  6 34  1  0  0  0  0
  7  2  1  6  0  0  0
  7  8  1  0  0  0  0
  7 16  1  0  0  0  0
  8  9  1  6  0  0  0
  8 14  1  0  0  0  0
  9 10  1  0  0  0  0
  9 35  1  0  0  0  0
  9 36  1  0  0  0  0
 10 11  1  0  0  0  0
 10 37  1  0  0  0  0
 10 38  1  0  0  0  0
 11 12  1  0  0  0  0
 11 13  1  0  0  0  0
 11 39  1  1  0  0  0
 12 40  1  0  0  0  0
 12 41  1  0  0  0  0
 12 42  1  0  0  0  0
 13 43  1  0  0  0  0
 13 44  1  0  0  0  0
 14 13  1  6  0  0  0
 14 15  1  0  0  0  0
 15 16  1  0  0  0  0
 15 18  1  6  0  0  0
 16 17  1  6  0  0  0
 17 45  1  0  0  0  0
 17 46  1  0  0  0  0
 18 19  1  6  0  0  0
 18 26  1  0  0  0  0
 19 20  1  0  0  0  0
 19 47  1  0  0  0  0
 20 21  1  0  0  0  0
 20 48  1  0  0  0  0
 21 22  1  6  0  0  0
 21 25  1  0  0  0  0
 22 23  1  0  0  0  0
 22 24  2  0  0  0  0
 23 49  1  0  0  0  0
 23 50  1  0  0  0  0
 25 26  1  0  0  0  0
 25 51  1  0  0  0  0
 26 52  1  0  0  0  0
M  CHG  2  11   1  15   1
M  END
$$$$
