4FCP_42C_A_301
 OpenBabel03301717293D

 21 22  0  0  0  0  0  0  0  0999 V2000
   -0.0090    9.9740   50.1321 C   0  0  0  0  0  0  0  0  0  0  0  0
   -1.1037   10.5422   49.4257 C   0  0  0  0  0  0  0  0  0  0  0  0
   -2.3475   10.5046   50.0436 C   0  0  0  0  0  0  0  0  0  0  0  0
   -1.5694    9.4985   51.8396 C   0  0  0  0  0  0  0  0  0  0  0  0
   -2.4936   11.4818   48.0747 C   0  0  0  0  0  0  0  0  0  0  0  0
    2.3699    9.5891   50.6034 C   0  0  0  0  0  0  0  0  0  0  0  0
    1.6770   10.1979   48.3084 C   0  0  0  0  0  0  0  0  0  0  0  0
    1.2940    9.8823   49.6723 N   0  0  0  0  0  0  0  0  0  0  0  0
   -0.3048    9.4649   51.3712 N   0  0  0  0  0  0  0  0  0  0  0  0
   -2.6633    9.9978   51.2410 N   0  0  0  0  0  0  0  0  0  0  0  0
   -3.2088   11.0979   49.1711 N   0  3  0  0  0  0  0  0  0  0  0  0
   -1.2222   11.1698   48.1926 N   0  0  0  0  0  0  0  0  0  0  0  0
   -1.7194    9.0653   52.8246 H   0  0  0  0  0  0  0  0  0  0  0  0
   -2.9461   11.9808   47.2286 H   0  0  0  0  0  0  0  0  0  0  0  0
    2.0468    9.3983   51.6311 H   0  0  0  0  0  0  0  0  0  0  0  0
    3.0684   10.4331   50.6394 H   0  0  0  0  0  0  0  0  0  0  0  0
    2.9249    8.7079   50.2645 H   0  0  0  0  0  0  0  0  0  0  0  0
    0.8492   10.3517   47.6168 H   0  0  0  0  0  0  0  0  0  0  0  0
    2.2586    9.3658   47.8946 H   0  0  0  0  0  0  0  0  0  0  0  0
    2.3096   11.0916   48.2883 H   0  0  0  0  0  0  0  0  0  0  0  0
   -4.1977   11.2229   49.3276 H   0  0  0  0  0  0  0  0  0  0  0  0
  1  2  2  0  0  0  0
  1  8  1  0  0  0  0
  1  9  1  0  0  0  0
  2  3  1  0  0  0  0
  2 12  1  0  0  0  0
  3 10  2  0  0  0  0
  3 11  1  0  0  0  0
  4  9  2  0  0  0  0
  4 10  1  0  0  0  0
  4 13  1  0  0  0  0
  5 11  2  0  0  0  0
  5 12  1  0  0  0  0
  5 14  1  0  0  0  0
  6  8  1  0  0  0  0
  6 15  1  0  0  0  0
  6 16  1  0  0  0  0
  6 17  1  0  0  0  0
  7  8  1  0  0  0  0
  7 18  1  0  0  0  0
  7 19  1  0  0  0  0
  7 20  1  0  0  0  0
 11 21  1  0  0  0  0
M  CHG  1  11   1
M  END
$$$$
