3R4N_FU5_A_901
 OpenBabel03301717213D

 38 39  0  0  0  0  0  0  0  0999 V2000
   13.7500   -1.4238   51.4553 C   0  0  0  0  0  0  0  0  0  0  0  0
   15.0999   -1.6078   50.8168 C   0  0  0  0  0  0  0  0  0  0  0  0
   13.5846   -1.6330   52.8741 C   0  0  0  0  0  0  0  0  0  0  0  0
   12.6011   -1.1078   50.6910 C   0  0  0  0  0  0  0  0  0  0  0  0
   15.6525   -2.8729   50.7653 C   0  0  0  0  0  0  0  0  0  0  0  0
   15.7409   -0.5229   50.3084 N   0  0  0  0  0  0  0  0  0  0  0  0
   12.3174   -1.5002   53.4790 C   0  0  0  0  0  0  0  0  0  0  0  0
   14.7744   -1.9421   53.5290 O   0  0  0  0  0  0  0  0  0  0  0  0
   11.3411   -0.9850   51.3102 C   0  0  0  0  0  0  0  0  0  0  0  0
   12.6929   -0.8539   48.9647 Cl  0  0  0  0  0  0  0  0  0  0  0  0
   16.8920   -2.9770   50.1802 C   0  0  0  0  0  0  0  0  0  0  0  0
   16.9645   -0.7014   49.7351 C   0  0  0  0  0  0  0  0  0  0  0  0
   11.1926   -1.1754   52.6884 C   0  0  0  0  0  0  0  0  0  0  0  0
   14.8401   -2.1651   54.9244 C   0  0  0  0  0  0  0  0  0  0  0  0
   17.5521   -1.9114   49.6653 N   0  0  0  0  0  0  0  0  0  0  0  0
   17.5415   -4.3388   50.1153 C   0  0  0  0  0  0  0  0  0  0  0  0
   17.6363    0.3756   49.2157 N   0  0  0  0  0  0  0  0  0  0  0  0
   16.3051   -2.4932   55.2840 C   0  0  0  0  0  0  0  0  0  0  0  0
   16.8537   -3.6106   54.3921 C   0  0  0  0  0  0  0  0  0  0  0  0
   18.2915   -3.9857   54.6651 C   0  0  0  0  0  0  0  0  0  0  0  0
   18.4795   -4.3081   55.9639 F   0  0  0  0  0  0  0  0  0  0  0  0
   18.6451   -5.0624   53.9191 F   0  0  0  0  0  0  0  0  0  0  0  0
   19.1313   -2.9771   54.3534 F   0  0  0  0  0  0  0  0  0  0  0  0
   15.1388   -3.7358   51.1790 H   0  0  0  0  0  0  0  0  0  0  0  0
   12.1740   -1.6371   54.5540 H   0  0  0  0  0  0  0  0  0  0  0  0
   10.4595   -0.7244   50.6967 H   0  0  0  0  0  0  0  0  0  0  0  0
   10.2028   -1.0712   53.1469 H   0  0  0  0  0  0  0  0  0  0  0  0
   14.2135   -3.0172   55.1925 H   0  0  0  0  0  0  0  0  0  0  0  0
   14.5287   -1.2658   55.4558 H   0  0  0  0  0  0  0  0  0  0  0  0
   16.8995   -5.1081   50.5693 H   0  0  0  0  0  0  0  0  0  0  0  0
   18.4933   -4.3323   50.6574 H   0  0  0  0  0  0  0  0  0  0  0  0
   17.7233   -4.6233   49.0732 H   0  0  0  0  0  0  0  0  0  0  0  0
   18.5496    0.2559   48.7901 H   0  0  0  0  0  0  0  0  0  0  0  0
   17.2309    1.3008   49.2467 H   0  0  0  0  0  0  0  0  0  0  0  0
   16.3483   -2.7985   56.3349 H   0  0  0  0  0  0  0  0  0  0  0  0
   16.9207   -1.5925   55.1619 H   0  0  0  0  0  0  0  0  0  0  0  0
   16.7776   -3.2932   53.3476 H   0  0  0  0  0  0  0  0  0  0  0  0
   16.2226   -4.4961   54.5237 H   0  0  0  0  0  0  0  0  0  0  0  0
  1  2  1  0  0  0  0
  1  3  2  0  0  0  0
  1  4  1  0  0  0  0
  2  5  2  0  0  0  0
  2  6  1  0  0  0  0
  3  7  1  0  0  0  0
  3  8  1  0  0  0  0
  4  9  2  0  0  0  0
  4 10  1  0  0  0  0
  5 11  1  0  0  0  0
  5 24  1  0  0  0  0
  6 12  2  0  0  0  0
  7 13  2  0  0  0  0
  7 25  1  0  0  0  0
  8 14  1  0  0  0  0
  9 13  1  0  0  0  0
  9 26  1  0  0  0  0
 11 15  2  0  0  0  0
 11 16  1  0  0  0  0
 12 15  1  0  0  0  0
 12 17  1  0  0  0  0
 13 27  1  0  0  0  0
 14 18  1  0  0  0  0
 14 28  1  0  0  0  0
 14 29  1  0  0  0  0
 16 30  1  0  0  0  0
 16 31  1  0  0  0  0
 16 32  1  0  0  0  0
 17 33  1  0  0  0  0
 17 34  1  0  0  0  0
 18 19  1  0  0  0  0
 18 35  1  0  0  0  0
 18 36  1  0  0  0  0
 19 20  1  0  0  0  0
 19 37  1  0  0  0  0
 19 38  1  0  0  0  0
 20 21  1  0  0  0  0
 20 22  1  0  0  0  0
 20 23  1  0  0  0  0
M  END
$$$$
