2YE9_2D4_A_1224
 OpenBabel03301717093D

 42 45  0  0  0  0  0  0  0  0999 V2000
   35.5854    7.3055   24.0943 C   0  0  0  0  0  0  0  0  0  0  0  0
   35.8585    7.7040   22.7555 C   0  0  0  0  0  0  0  0  0  0  0  0
   35.1796    6.9288   21.8425 C   0  0  0  0  0  0  0  0  0  0  0  0
   34.2048    5.7435   22.6058 S   0  0  0  0  0  0  0  0  0  0  0  0
   34.6944    6.2522   24.1651 C   0  0  0  0  0  0  0  0  0  0  0  0
   34.0045    5.3913   25.5641 S   0  0  0  0  0  0  0  0  0  0  0  0
   34.1035    3.9807   25.2324 O   0  0  0  0  0  0  0  0  0  0  0  0
   34.6975    5.9464   26.7056 O   0  0  0  0  0  0  0  0  0  0  0  0
   32.3667    5.7475   25.6856 N   0  0  0  0  0  0  0  0  0  0  0  0
   31.7447    5.1857   25.1102 H   0  0  0  0  0  0  0  0  0  0  0  0
   31.9753    7.0562   26.0625 C   0  0  0  0  0  0  0  0  0  0  0  0
   31.9615    8.1083   25.1484 C   0  0  0  0  0  0  0  0  0  0  0  0
   31.5997    7.2696   27.3843 C   0  0  0  0  0  0  0  0  0  0  0  0
   31.2342    8.5418   27.8120 C   0  0  0  0  0  0  0  0  0  0  0  0
   31.2555    9.6043   26.9126 C   0  0  0  0  0  0  0  0  0  0  0  0
   30.9273   10.8288   27.4271 O   0  0  0  0  0  0  0  0  0  0  0  0
   31.6191    9.4108   25.5677 C   0  0  0  0  0  0  0  0  0  0  0  0
   31.7027   10.5322   24.6130 C   0  0  0  0  0  0  0  0  0  0  0  0
   32.9641   11.0291   24.1729 C   0  0  0  0  0  0  0  0  0  0  0  0
   34.2020   10.5053   24.6147 C   0  0  0  0  0  0  0  0  0  0  0  0
   35.4206   10.9894   24.1464 C   0  0  0  0  0  0  0  0  0  0  0  0
   35.4379   12.0311   23.2354 C   0  0  0  0  0  0  0  0  0  0  0  0
   34.2374   12.5972   22.8043 C   0  0  0  0  0  0  0  0  0  0  0  0
   32.9990   12.1140   23.2621 C   0  0  0  0  0  0  0  0  0  0  0  0
   31.7971   12.6987   22.8324 C   0  0  0  0  0  0  0  0  0  0  0  0
   30.5635   12.2267   23.2761 C   0  0  0  0  0  0  0  0  0  0  0  0
   30.5234   11.1504   24.1517 C   0  0  0  0  0  0  0  0  0  0  0  0
   29.3173   10.6913   24.6105 O   0  0  0  0  0  0  0  0  0  0  0  0
   36.0026    7.7710   24.9797 H   0  0  0  0  0  0  0  0  0  0  0  0
   36.5157    8.5193   22.4765 H   0  0  0  0  0  0  0  0  0  0  0  0
   35.2075    7.0064   20.7634 H   0  0  0  0  0  0  0  0  0  0  0  0
   32.2448    7.9458   24.1122 H   0  0  0  0  0  0  0  0  0  0  0  0
   31.6039    6.4454   28.0984 H   0  0  0  0  0  0  0  0  0  0  0  0
   30.9462    8.7152   28.8454 H   0  0  0  0  0  0  0  0  0  0  0  0
   30.8989   11.4694   26.6919 H   0  0  0  0  0  0  0  0  0  0  0  0
   34.2309    9.6960   25.3436 H   0  0  0  0  0  0  0  0  0  0  0  0
   36.3498   10.5448   24.4966 H   0  0  0  0  0  0  0  0  0  0  0  0
   36.3874   12.4118   22.8644 H   0  0  0  0  0  0  0  0  0  0  0  0
   34.2777   13.4280   22.1034 H   0  0  0  0  0  0  0  0  0  0  0  0
   31.8150   13.5441   22.1454 H   0  0  0  0  0  0  0  0  0  0  0  0
   29.6535   12.7090   22.9347 H   0  0  0  0  0  0  0  0  0  0  0  0
   28.5936   11.2093   24.2197 H   0  0  0  0  0  0  0  0  0  0  0  0
  1  2  1  0  0  0  0
  1  5  2  0  0  0  0
  1 29  1  0  0  0  0
  2  3  2  0  0  0  0
  2 30  1  0  0  0  0
  3  4  1  0  0  0  0
  3 31  1  0  0  0  0
  4  5  1  0  0  0  0
  5  6  1  0  0  0  0
  6  7  2  0  0  0  0
  6  8  2  0  0  0  0
  6  9  1  0  0  0  0
  9 10  1  0  0  0  0
  9 11  1  0  0  0  0
 11 12  2  0  0  0  0
 11 13  1  0  0  0  0
 12 17  1  0  0  0  0
 12 32  1  0  0  0  0
 13 14  2  0  0  0  0
 13 33  1  0  0  0  0
 14 15  1  0  0  0  0
 14 34  1  0  0  0  0
 15 16  1  0  0  0  0
 15 17  2  0  0  0  0
 16 35  1  0  0  0  0
 17 18  1  0  0  0  0
 18 19  2  0  0  0  0
 18 27  1  0  0  0  0
 19 20  1  0  0  0  0
 19 24  1  0  0  0  0
 20 21  2  0  0  0  0
 20 36  1  0  0  0  0
 21 22  1  0  0  0  0
 21 37  1  0  0  0  0
 22 23  2  0  0  0  0
 22 38  1  0  0  0  0
 23 24  1  0  0  0  0
 23 39  1  0  0  0  0
 24 25  2  0  0  0  0
 25 26  1  0  0  0  0
 25 40  1  0  0  0  0
 26 27  2  0  0  0  0
 26 41  1  0  0  0  0
 27 28  1  0  0  0  0
 28 42  1  0  0  0  0
M  END
$$$$
