1UY6_PU3_A_1224
 OpenBabel03301716573D

 52 54  0  0  0  0  0  0  0  0999 V2000
    8.2412   10.2441   23.0878 C   0  0  0  0  0  0  0  0  0  0  0  0
    8.0901   11.4439   23.8442 O   0  0  0  0  0  0  0  0  0  0  0  0
    6.8123   11.9133   24.0290 C   0  0  0  0  0  0  0  0  0  0  0  0
    5.6805   11.2997   23.4888 C   0  0  0  0  0  0  0  0  0  0  0  0
    6.6451   13.0786   24.8013 C   0  0  0  0  0  0  0  0  0  0  0  0
    7.7641   13.6618   25.3592 O   0  0  0  0  0  0  0  0  0  0  0  0
    8.0329   14.9486   24.7994 C   0  0  0  0  0  0  0  0  0  0  0  0
    5.3562   13.5835   25.0791 C   0  0  0  0  0  0  0  0  0  0  0  0
    5.2929   14.6609   25.9253 O   0  0  0  0  0  0  0  0  0  0  0  0
    4.1294   15.4744   25.8890 C   0  0  0  0  0  0  0  0  0  0  0  0
    4.2353   12.9323   24.5503 C   0  0  0  0  0  0  0  0  0  0  0  0
    4.3889   11.7872   23.7485 C   0  0  0  0  0  0  0  0  0  0  0  0
    3.2168   11.0609   23.1213 C   0  0  0  0  0  0  0  0  0  0  0  0
    2.0356   10.8598   24.0109 C   0  0  0  0  0  0  0  0  0  0  0  0
    0.8208   11.3281   23.7744 N   0  0  0  0  0  0  0  0  0  0  0  0
    0.0476   10.8984   24.8282 C   0  0  0  0  0  0  0  0  0  0  0  0
   -1.3059   11.0786   25.1426 C   0  0  0  0  0  0  0  0  0  0  0  0
   -2.1706   11.8167   24.3637 N   0  0  0  0  0  0  0  0  0  0  0  0
    0.7980   10.1544   25.7193 C   0  0  0  0  0  0  0  0  0  0  0  0
    0.3745    9.5650   26.8524 N   0  0  0  0  0  0  0  0  0  0  0  0
   -0.9316    9.8053   27.0467 C   0  0  0  0  0  0  0  0  0  0  0  0
   -1.7891   10.4997   26.2688 N   0  0  0  0  0  0  0  0  0  0  0  0
    2.0538   10.1143   25.1712 N   0  3  0  0  0  0  0  0  0  0  0  0
    3.1346    9.2966   25.6830 C   0  0  0  0  0  0  0  0  0  0  0  0
    2.9027    7.8259   25.3581 C   0  0  0  0  0  0  0  0  0  0  0  0
    4.0350    7.1868   24.5562 C   0  0  0  0  0  0  0  0  0  0  0  0
    4.0839    5.7012   24.8746 C   0  0  0  0  0  0  0  0  0  0  0  0
    9.3033    9.9811   23.0646 H   0  0  0  0  0  0  0  0  0  0  0  0
    7.9154   10.3909   22.0516 H   0  0  0  0  0  0  0  0  0  0  0  0
    7.7059    9.4050   23.5492 H   0  0  0  0  0  0  0  0  0  0  0  0
    5.7737   10.4184   22.8617 H   0  0  0  0  0  0  0  0  0  0  0  0
    8.9059   15.3622   25.3152 H   0  0  0  0  0  0  0  0  0  0  0  0
    7.2139   15.6611   24.9386 H   0  0  0  0  0  0  0  0  0  0  0  0
    8.2732   14.8638   23.7351 H   0  0  0  0  0  0  0  0  0  0  0  0
    4.3293   16.3545   26.5129 H   0  0  0  0  0  0  0  0  0  0  0  0
    3.2695   14.9565   26.3194 H   0  0  0  0  0  0  0  0  0  0  0  0
    3.9164   15.8340   24.8762 H   0  0  0  0  0  0  0  0  0  0  0  0
    3.2318   13.2832   24.7766 H   0  0  0  0  0  0  0  0  0  0  0  0
    3.5306   10.0774   22.7536 H   0  0  0  0  0  0  0  0  0  0  0  0
    2.9083   11.6348   22.2332 H   0  0  0  0  0  0  0  0  0  0  0  0
   -3.1490   11.7947   24.6046 H   0  0  0  0  0  0  0  0  0  0  0  0
   -1.8541   12.1069   23.4490 H   0  0  0  0  0  0  0  0  0  0  0  0
   -1.3613    9.3815   27.9564 H   0  0  0  0  0  0  0  0  0  0  0  0
    3.1654    9.4500   26.7705 H   0  0  0  0  0  0  0  0  0  0  0  0
    4.0857    9.6640   25.2957 H   0  0  0  0  0  0  0  0  0  0  0  0
    1.9722    7.6795   24.7941 H   0  0  0  0  0  0  0  0  0  0  0  0
    2.7701    7.2950   26.3075 H   0  0  0  0  0  0  0  0  0  0  0  0
    5.0062    7.6392   24.7865 H   0  0  0  0  0  0  0  0  0  0  0  0
    3.8566    7.3309   23.4829 H   0  0  0  0  0  0  0  0  0  0  0  0
    4.3013    5.5546   25.9391 H   0  0  0  0  0  0  0  0  0  0  0  0
    4.8601    5.1975   24.2952 H   0  0  0  0  0  0  0  0  0  0  0  0
    3.1204    5.2283   24.6596 H   0  0  0  0  0  0  0  0  0  0  0  0
  1  2  1  0  0  0  0
  1 28  1  0  0  0  0
  1 29  1  0  0  0  0
  1 30  1  0  0  0  0
  2  3  1  0  0  0  0
  3  4  2  0  0  0  0
  3  5  1  0  0  0  0
  4 12  1  0  0  0  0
  4 31  1  0  0  0  0
  5  6  1  0  0  0  0
  5  8  2  0  0  0  0
  6  7  1  0  0  0  0
  7 32  1  0  0  0  0
  7 33  1  0  0  0  0
  7 34  1  0  0  0  0
  8  9  1  0  0  0  0
  8 11  1  0  0  0  0
  9 10  1  0  0  0  0
 10 35  1  0  0  0  0
 10 36  1  0  0  0  0
 10 37  1  0  0  0  0
 11 12  2  0  0  0  0
 11 38  1  0  0  0  0
 12 13  1  0  0  0  0
 13 14  1  0  0  0  0
 13 39  1  0  0  0  0
 13 40  1  0  0  0  0
 14 15  1  0  0  0  0
 14 23  2  0  0  0  0
 15 16  1  0  0  0  0
 16 17  2  0  0  0  0
 16 19  1  0  0  0  0
 17 18  1  0  0  0  0
 17 22  1  0  0  0  0
 18 41  1  0  0  0  0
 18 42  1  0  0  0  0
 19 20  2  0  0  0  0
 19 23  1  0  0  0  0
 20 21  1  0  0  0  0
 21 22  2  0  0  0  0
 21 43  1  0  0  0  0
 23 24  1  0  0  0  0
 24 25  1  0  0  0  0
 24 44  1  0  0  0  0
 24 45  1  0  0  0  0
 25 26  1  0  0  0  0
 25 46  1  0  0  0  0
 25 47  1  0  0  0  0
 26 27  1  0  0  0  0
 26 48  1  0  0  0  0
 26 49  1  0  0  0  0
 27 50  1  0  0  0  0
 27 51  1  0  0  0  0
 27 52  1  0  0  0  0
M  CHG  1  23   1
M  END
$$$$
