1UY9_PU6_A_1224
 OpenBabel03301716573D

 43 46  0  0  0  0  0  0  0  0999 V2000
    4.9744    7.5673   23.7628 C   0  0  0  0  0  0  0  0  0  0  0  0
    3.5010    7.4151   24.1142 C   0  0  0  0  0  0  0  0  0  0  0  0
    3.1633    7.8604   25.5401 C   0  0  0  0  0  0  0  0  0  0  0  0
    3.2149    9.3741   25.7495 C   0  0  0  0  0  0  0  0  0  0  0  0
    2.0641   10.0297   25.1626 N   0  3  0  0  0  0  0  0  0  0  0  0
    0.8005   10.0472   25.7080 C   0  0  0  0  0  0  0  0  0  0  0  0
    0.4008    9.5174   26.8728 N   0  0  0  0  0  0  0  0  0  0  0  0
   -0.9234    9.7235   27.0645 C   0  0  0  0  0  0  0  0  0  0  0  0
   -1.7970   10.3638   26.2558 N   0  0  0  0  0  0  0  0  0  0  0  0
    0.0239   10.7233   24.7832 C   0  0  0  0  0  0  0  0  0  0  0  0
   -1.3357   10.8820   25.0943 C   0  0  0  0  0  0  0  0  0  0  0  0
   -2.2211   11.5402   24.2717 N   0  0  0  0  0  0  0  0  0  0  0  0
    0.7836   11.1177   23.7008 N   0  0  0  0  0  0  0  0  0  0  0  0
    2.0106   10.6998   23.9557 C   0  0  0  0  0  0  0  0  0  0  0  0
    3.2147   10.9602   23.0993 C   0  0  0  0  0  0  0  0  0  0  0  0
    4.1043   12.0438   23.6705 C   0  0  0  0  0  0  0  0  0  0  0  0
    3.5486   13.2202   24.2139 C   0  0  0  0  0  0  0  0  0  0  0  0
    4.3983   14.1736   24.7365 C   0  0  0  0  0  0  0  0  0  0  0  0
    5.5081   11.8852   23.6606 C   0  0  0  0  0  0  0  0  0  0  0  0
    4.0253   15.3482   25.3052 O   0  0  0  0  0  0  0  0  0  0  0  0
    6.3426   12.8699   24.1960 C   0  0  0  0  0  0  0  0  0  0  0  0
    5.7599   14.0022   24.7255 C   0  0  0  0  0  0  0  0  0  0  0  0
    6.4175   15.0578   25.2821 O   0  0  0  0  0  0  0  0  0  0  0  0
    5.3104   15.9125   25.6457 C   0  0  0  0  0  0  0  0  0  0  0  0
    5.1509    7.2274   22.7372 H   0  0  0  0  0  0  0  0  0  0  0  0
    5.5995    6.9700   24.4331 H   0  0  0  0  0  0  0  0  0  0  0  0
    5.3094    8.6048   23.8274 H   0  0  0  0  0  0  0  0  0  0  0  0
    3.2275    6.3609   24.0048 H   0  0  0  0  0  0  0  0  0  0  0  0
    2.8928    7.9642   23.3864 H   0  0  0  0  0  0  0  0  0  0  0  0
    3.8474    7.3734   26.2456 H   0  0  0  0  0  0  0  0  0  0  0  0
    2.1554    7.5017   25.7771 H   0  0  0  0  0  0  0  0  0  0  0  0
    4.1272    9.8005   25.3295 H   0  0  0  0  0  0  0  0  0  0  0  0
    3.2258    9.6228   26.8171 H   0  0  0  0  0  0  0  0  0  0  0  0
   -1.3373    9.3200   27.9810 H   0  0  0  0  0  0  0  0  0  0  0  0
   -1.8857   11.9158   23.3943 H   0  0  0  0  0  0  0  0  0  0  0  0
   -3.1868   11.5972   24.5499 H   0  0  0  0  0  0  0  0  0  0  0  0
    2.9001   11.2422   22.0871 H   0  0  0  0  0  0  0  0  0  0  0  0
    3.7813   10.0341   22.9796 H   0  0  0  0  0  0  0  0  0  0  0  0
    2.4737   13.3724   24.2393 H   0  0  0  0  0  0  0  0  0  0  0  0
    5.9538   10.9819   23.2435 H   0  0  0  0  0  0  0  0  0  0  0  0
    7.4204   12.7420   24.1972 H   0  0  0  0  0  0  0  0  0  0  0  0
    5.3463   16.0965   26.7261 H   0  0  0  0  0  0  0  0  0  0  0  0
    5.4219   16.8771   25.1358 H   0  0  0  0  0  0  0  0  0  0  0  0
  1  2  1  0  0  0  0
  1 25  1  0  0  0  0
  1 26  1  0  0  0  0
  1 27  1  0  0  0  0
  2  3  1  0  0  0  0
  2 28  1  0  0  0  0
  2 29  1  0  0  0  0
  3  4  1  0  0  0  0
  3 30  1  0  0  0  0
  3 31  1  0  0  0  0
  4  5  1  0  0  0  0
  4 32  1  0  0  0  0
  4 33  1  0  0  0  0
  5  6  1  0  0  0  0
  5 14  2  0  0  0  0
  6  7  2  0  0  0  0
  6 10  1  0  0  0  0
  7  8  1  0  0  0  0
  8  9  2  0  0  0  0
  8 34  1  0  0  0  0
  9 11  1  0  0  0  0
 10 11  2  0  0  0  0
 10 13  1  0  0  0  0
 11 12  1  0  0  0  0
 12 35  1  0  0  0  0
 12 36  1  0  0  0  0
 13 14  1  0  0  0  0
 14 15  1  0  0  0  0
 15 16  1  0  0  0  0
 15 37  1  0  0  0  0
 15 38  1  0  0  0  0
 16 17  2  0  0  0  0
 16 19  1  0  0  0  0
 17 18  1  0  0  0  0
 17 39  1  0  0  0  0
 18 20  1  0  0  0  0
 18 22  2  0  0  0  0
 19 21  2  0  0  0  0
 19 40  1  0  0  0  0
 20 24  1  0  0  0  0
 21 22  1  0  0  0  0
 21 41  1  0  0  0  0
 22 23  1  0  0  0  0
 23 24  1  0  0  0  0
 24 42  1  0  0  0  0
 24 43  1  0  0  0  0
M  CHG  1   5   1
M  END
$$$$
