5M4H_7FX_A_301
 OpenBabel03301717393D

 35 37  0  0  1  0  0  0  0  0999 V2000
   30.7106    7.9354   27.1962 C   0  0  0  0  0  0  0  0  0  0  0  0
   32.6013    6.4778   26.3598 C   0  0  2  0  0  0  0  0  0  0  0  0
   31.3339    7.9247   24.8485 C   0  0  0  0  0  0  0  0  0  0  0  0
   32.1396    5.0612   26.5434 C   0  0  0  0  0  0  0  0  0  0  0  0
   32.0570    7.3380   27.5169 C   0  0  0  0  0  0  0  0  0  0  0  0
   31.1274    8.0171   23.4938 C   0  0  0  0  0  0  0  0  0  0  0  0
   31.9587    7.0529   22.9458 C   0  0  0  0  0  0  0  0  0  0  0  0
   30.7880    8.5920   25.8891 N   0  0  0  0  0  0  0  0  0  0  0  0
   32.6134    6.3569   23.8872 N   0  0  0  0  0  0  0  0  0  0  0  0
   32.2104    6.9182   25.0361 N   0  3  0  0  0  0  0  0  0  0  0  0
   30.2580   10.5634   24.5007 C   0  0  0  0  0  0  0  0  0  0  0  0
   31.5439   10.8794   24.0712 C   0  0  0  0  0  0  0  0  0  0  0  0
   31.6974   11.5511   22.8746 C   0  0  0  0  0  0  0  0  0  0  0  0
   30.5649   11.8896   22.1385 C   0  0  0  0  0  0  0  0  0  0  0  0
   29.2905   11.5360   22.5836 C   0  0  0  0  0  0  0  0  0  0  0  0
   29.1281   10.8577   23.7739 C   0  0  0  0  0  0  0  0  0  0  0  0
   27.9325   10.4453   24.2738 O   0  0  0  0  0  0  0  0  0  0  0  0
   30.7540   12.5760   20.9704 O   0  0  0  0  0  0  0  0  0  0  0  0
   30.1109    9.8111   25.7471 C   0  0  0  0  0  0  0  0  0  0  0  0
   29.5134   10.2498   26.6791 O   0  0  0  0  0  0  0  0  0  0  0  0
   30.7876    4.9900   26.6159 F   0  0  0  0  0  0  0  0  0  0  0  0
   32.5565    4.2610   25.5437 F   0  0  0  0  0  0  0  0  0  0  0  0
   32.6257    4.5434   27.6997 F   0  0  0  0  0  0  0  0  0  0  0  0
   30.4269    8.6502   27.9678 H   0  0  0  0  0  0  0  0  0  0  0  0
   29.9459    7.1593   27.1334 H   0  0  0  0  0  0  0  0  0  0  0  0
   33.6875    6.5356   26.4013 H   0  0  0  0  0  0  0  0  0  0  0  0
   31.9630    6.7308   28.4291 H   0  0  0  0  0  0  0  0  0  0  0  0
   32.7696    8.1457   27.7311 H   0  0  0  0  0  0  0  0  0  0  0  0
   30.4769    8.6562   22.9382 H   0  0  0  0  0  0  0  0  0  0  0  0
   32.0727    6.8572   21.8720 H   0  0  0  0  0  0  0  0  0  0  0  0
   32.4011   10.5762   24.6653 H   0  0  0  0  0  0  0  0  0  0  0  0
   32.6967   11.8150   22.5438 H   0  0  0  0  0  0  0  0  0  0  0  0
   28.4263   11.8084   22.0000 H   0  0  0  0  0  0  0  0  0  0  0  0
   27.1887   10.7270   23.7173 H   0  0  0  0  0  0  0  0  0  0  0  0
   29.9085   12.7707   20.5306 H   0  0  0  0  0  0  0  0  0  0  0  0
  1  5  1  0  0  0  0
  1  8  1  0  0  0  0
  1 24  1  0  0  0  0
  1 25  1  0  0  0  0
  2  4  1  0  0  0  0
  2  5  1  0  0  0  0
  2 10  1  0  0  0  0
  2 26  1  1  0  0  0
  3  6  1  0  0  0  0
  3  8  1  0  0  0  0
  3 10  2  0  0  0  0
  4 21  1  0  0  0  0
  4 22  1  0  0  0  0
  4 23  1  0  0  0  0
  5 27  1  0  0  0  0
  5 28  1  0  0  0  0
  6  7  2  0  0  0  0
  6 29  1  0  0  0  0
  7  9  1  0  0  0  0
  7 30  1  0  0  0  0
  8 19  1  0  0  0  0
  9 10  1  0  0  0  0
 11 12  2  0  0  0  0
 11 16  1  0  0  0  0
 11 19  1  0  0  0  0
 12 13  1  0  0  0  0
 12 31  1  0  0  0  0
 13 14  2  0  0  0  0
 13 32  1  0  0  0  0
 14 15  1  0  0  0  0
 14 18  1  0  0  0  0
 15 16  2  0  0  0  0
 15 33  1  0  0  0  0
 16 17  1  0  0  0  0
 17 34  1  0  0  0  0
 18 35  1  0  0  0  0
 19 20  2  0  0  0  0
M  CHG  1  10   1
M  END
$$$$
