3OWB_BSM_A_1
 OpenBabel03301717193D

 45 47  0  0  0  0  0  0  0  0999 V2000
   -2.3270    5.6399   28.2539 C   0  0  0  0  0  0  0  0  0  0  0  0
   -2.6968    6.1831   26.9916 O   0  0  0  0  0  0  0  0  0  0  0  0
   -1.6893    6.7300   26.2496 C   0  0  0  0  0  0  0  0  0  0  0  0
   -2.0917    7.2431   25.0142 C   0  0  0  0  0  0  0  0  0  0  0  0
   -1.1634    7.8347   24.1577 C   0  0  0  0  0  0  0  0  0  0  0  0
   -0.3458    6.8153   26.6205 C   0  0  0  0  0  0  0  0  0  0  0  0
    0.5873    7.4119   25.7665 C   0  0  0  0  0  0  0  0  0  0  0  0
    0.1819    7.9290   24.5347 C   0  0  0  0  0  0  0  0  0  0  0  0
    1.1292    8.5519   23.6311 C   0  0  0  0  0  0  0  0  0  0  0  0
    1.4663    8.2011   22.2948 C   0  0  0  0  0  0  0  0  0  0  0  0
    0.9805    7.0377   21.5362 C   0  0  0  0  0  0  0  0  0  0  0  0
    0.4507    6.0612   22.0527 O   0  0  0  0  0  0  0  0  0  0  0  0
    1.1855    7.1603   20.1810 N   0  0  0  0  0  0  0  0  0  0  0  0
    0.8895    6.0964   19.2578 C   0  0  0  0  0  0  0  0  0  0  0  0
   -0.3129    6.4238   18.3969 C   0  0  0  0  0  0  0  0  0  0  0  0
    2.3183    9.0976   21.7516 N   0  0  0  0  0  0  0  0  0  0  0  0
    2.5788    9.9419   22.7682 N   0  3  0  0  0  0  0  0  0  0  0  0
    1.8510    9.7013   23.9030 C   0  0  0  0  0  0  0  0  0  0  0  0
    1.9077   10.5702   25.0728 C   0  0  0  0  0  0  0  0  0  0  0  0
    0.7114   11.0800   25.5959 C   0  0  0  0  0  0  0  0  0  0  0  0
    0.7233   11.8614   26.7487 C   0  0  0  0  0  0  0  0  0  0  0  0
   -0.7758   12.4665   27.3506 Cl  0  0  0  0  0  0  0  0  0  0  0  0
    1.9353   12.1362   27.3914 C   0  0  0  0  0  0  0  0  0  0  0  0
    1.9369   12.8793   28.5389 O   0  0  0  0  0  0  0  0  0  0  0  0
    2.8312   12.9098   28.9138 H   0  0  0  0  0  0  0  0  0  0  0  0
    3.1390   11.6565   26.8703 C   0  0  0  0  0  0  0  0  0  0  0  0
    3.1190   10.8928   25.7020 C   0  0  0  0  0  0  0  0  0  0  0  0
    4.2944   10.4450   25.1584 O   0  0  0  0  0  0  0  0  0  0  0  0
   -3.2311    5.2587   28.7352 H   0  0  0  0  0  0  0  0  0  0  0  0
   -1.9025    6.4116   28.9053 H   0  0  0  0  0  0  0  0  0  0  0  0
   -1.6334    4.8016   28.1294 H   0  0  0  0  0  0  0  0  0  0  0  0
   -3.1317    7.1691   24.7076 H   0  0  0  0  0  0  0  0  0  0  0  0
   -1.4958    8.2118   23.1947 H   0  0  0  0  0  0  0  0  0  0  0  0
    0.0109    6.4161   27.5632 H   0  0  0  0  0  0  0  0  0  0  0  0
    1.6317    7.4588   26.0675 H   0  0  0  0  0  0  0  0  0  0  0  0
    1.6448    8.0139   19.8796 H   0  0  0  0  0  0  0  0  0  0  0  0
    0.7105    5.1651   19.8042 H   0  0  0  0  0  0  0  0  0  0  0  0
    1.7796    5.9573   18.6364 H   0  0  0  0  0  0  0  0  0  0  0  0
   -1.2023    6.6042   19.0110 H   0  0  0  0  0  0  0  0  0  0  0  0
   -0.5261    5.5938   17.7172 H   0  0  0  0  0  0  0  0  0  0  0  0
   -0.1319    7.3223   17.7979 H   0  0  0  0  0  0  0  0  0  0  0  0
    3.2424   10.6938   22.6196 H   0  0  0  0  0  0  0  0  0  0  0  0
   -0.2351   10.8612   25.1062 H   0  0  0  0  0  0  0  0  0  0  0  0
    4.0769   11.8779   27.3661 H   0  0  0  0  0  0  0  0  0  0  0  0
    5.0342   10.6680   25.7465 H   0  0  0  0  0  0  0  0  0  0  0  0
  1  2  1  0  0  0  0
  1 29  1  0  0  0  0
  1 30  1  0  0  0  0
  1 31  1  0  0  0  0
  2  3  1  0  0  0  0
  3  4  2  0  0  0  0
  3  6  1  0  0  0  0
  4  5  1  0  0  0  0
  4 32  1  0  0  0  0
  5  8  2  0  0  0  0
  5 33  1  0  0  0  0
  6  7  2  0  0  0  0
  6 34  1  0  0  0  0
  7  8  1  0  0  0  0
  7 35  1  0  0  0  0
  8  9  1  0  0  0  0
  9 10  2  0  0  0  0
  9 18  1  0  0  0  0
 10 11  1  0  0  0  0
 10 16  1  0  0  0  0
 11 12  2  0  0  0  0
 11 13  1  0  0  0  0
 13 14  1  0  0  0  0
 13 36  1  0  0  0  0
 14 15  1  0  0  0  0
 14 37  1  0  0  0  0
 14 38  1  0  0  0  0
 15 39  1  0  0  0  0
 15 40  1  0  0  0  0
 15 41  1  0  0  0  0
 16 17  1  0  0  0  0
 17 18  2  0  0  0  0
 17 42  1  0  0  0  0
 18 19  1  0  0  0  0
 19 20  2  0  0  0  0
 19 27  1  0  0  0  0
 20 21  1  0  0  0  0
 20 43  1  0  0  0  0
 21 22  1  0  0  0  0
 21 23  2  0  0  0  0
 23 24  1  0  0  0  0
 23 26  1  0  0  0  0
 24 25  1  0  0  0  0
 26 27  2  0  0  0  0
 26 44  1  0  0  0  0
 27 28  1  0  0  0  0
 28 45  1  0  0  0  0
M  CHG  1  17   1
M  END
$$$$
