4LWF_FJ3_A_301
 OpenBabel03301717323D

 31 32  0  0  0  0  0  0  0  0999 V2000
   -1.4196  -11.7907  -22.7007 C   0  0  0  0  0  0  0  0  0  0  0  0
   -2.6591  -11.3477  -23.1697 C   0  0  0  0  0  0  0  0  0  0  0  0
   -2.7524  -10.6700  -24.3827 C   0  0  0  0  0  0  0  0  0  0  0  0
   -1.6045  -10.4002  -25.1321 C   0  0  0  0  0  0  0  0  0  0  0  0
   -0.3671  -10.8665  -24.6518 C   0  0  0  0  0  0  0  0  0  0  0  0
   -0.2444  -11.5676  -23.4329 C   0  0  0  0  0  0  0  0  0  0  0  0
    1.1079  -12.1341  -23.0241 C   0  0  0  0  0  0  0  0  0  0  0  0
   -1.4628  -12.4635  -21.5113 O   0  0  0  0  0  0  0  0  0  0  0  0
   -4.0088  -10.2928  -24.7768 O   0  0  0  0  0  0  0  0  0  0  0  0
   -1.6352   -9.6447  -26.3805 C   0  0  0  0  0  0  0  0  0  0  0  0
   -2.6159   -9.7930  -27.2871 N   0  0  0  0  0  0  0  0  0  0  0  0
   -2.2830   -8.9553  -28.3444 O   0  0  0  0  0  0  0  0  0  0  0  0
   -1.1397   -8.2846  -28.0498 C   0  0  0  0  0  0  0  0  0  0  0  0
   -0.6998   -8.6692  -26.8161 C   0  0  0  0  0  0  0  0  0  0  0  0
   -0.6583   -7.4158  -28.9470 N   0  0  0  0  0  0  0  0  0  0  0  0
    1.3407  -13.4522  -23.7652 C   0  0  0  0  0  0  0  0  0  0  0  0
    2.2848  -11.1725  -23.2340 C   0  0  0  0  0  0  0  0  0  0  0  0
   -3.5578  -11.5459  -22.5911 H   0  0  0  0  0  0  0  0  0  0  0  0
    0.5175  -10.7105  -25.2659 H   0  0  0  0  0  0  0  0  0  0  0  0
    1.1108  -12.3450  -21.9508 H   0  0  0  0  0  0  0  0  0  0  0  0
   -0.5775  -12.7368  -21.2378 H   0  0  0  0  0  0  0  0  0  0  0  0
   -3.9594  -10.0069  -25.7106 H   0  0  0  0  0  0  0  0  0  0  0  0
    0.1751   -8.3090  -26.2965 H   0  0  0  0  0  0  0  0  0  0  0  0
    0.1334   -6.8079  -28.7537 H   0  0  0  0  0  0  0  0  0  0  0  0
   -1.1633   -7.2244  -29.8053 H   0  0  0  0  0  0  0  0  0  0  0  0
    1.3877  -13.3049  -24.8496 H   0  0  0  0  0  0  0  0  0  0  0  0
    0.5314  -14.1633  -23.5632 H   0  0  0  0  0  0  0  0  0  0  0  0
    2.2807  -13.9193  -23.4481 H   0  0  0  0  0  0  0  0  0  0  0  0
    2.4654  -10.9479  -24.2898 H   0  0  0  0  0  0  0  0  0  0  0  0
    3.2070  -11.6106  -22.8362 H   0  0  0  0  0  0  0  0  0  0  0  0
    2.1119  -10.2260  -22.7097 H   0  0  0  0  0  0  0  0  0  0  0  0
  1  2  2  0  0  0  0
  1  6  1  0  0  0  0
  1  8  1  0  0  0  0
  2  3  1  0  0  0  0
  2 18  1  0  0  0  0
  3  4  2  0  0  0  0
  3  9  1  0  0  0  0
  4  5  1  0  0  0  0
  4 10  1  0  0  0  0
  5  6  2  0  0  0  0
  5 19  1  0  0  0  0
  6  7  1  0  0  0  0
  7 16  1  0  0  0  0
  7 17  1  0  0  0  0
  7 20  1  0  0  0  0
  8 21  1  0  0  0  0
  9 22  1  0  0  0  0
 10 11  2  0  0  0  0
 10 14  1  0  0  0  0
 11 12  1  0  0  0  0
 12 13  1  0  0  0  0
 13 14  2  0  0  0  0
 13 15  1  0  0  0  0
 14 23  1  0  0  0  0
 15 24  1  0  0  0  0
 15 25  1  0  0  0  0
 16 26  1  0  0  0  0
 16 27  1  0  0  0  0
 16 28  1  0  0  0  0
 17 29  1  0  0  0  0
 17 30  1  0  0  0  0
 17 31  1  0  0  0  0
M  END
$$$$
