2YJW_YJW_A_1224
 OpenBabel03301717123D

 33 35  0  0  0  0  0  0  0  0999 V2000
    2.4279   34.5690   27.0828 N   0  0  0  0  0  0  0  0  0  0  0  0
    1.6737   34.7680   25.9851 C   0  0  0  0  0  0  0  0  0  0  0  0
    0.9177   35.9579   26.1274 C   0  0  0  0  0  0  0  0  0  0  0  0
    1.2948   36.4914   27.3182 C   0  0  0  0  0  0  0  0  0  0  0  0
    1.6471   33.8807   24.8230 C   0  0  0  0  0  0  0  0  0  0  0  0
    0.0389   36.6454   25.2032 C   0  0  0  0  0  0  0  0  0  0  0  0
    0.8970   37.7487   27.9643 C   0  0  0  0  0  0  0  0  0  0  0  0
    0.5685   37.1507   24.0070 C   0  0  0  0  0  0  0  0  0  0  0  0
   -0.2528   37.8515   23.1190 C   0  0  0  0  0  0  0  0  0  0  0  0
   -1.5951   38.0112   23.4044 C   0  0  0  0  0  0  0  0  0  0  0  0
   -2.1346   37.5259   24.6038 C   0  0  0  0  0  0  0  0  0  0  0  0
   -1.3143   36.8475   25.5064 C   0  0  0  0  0  0  0  0  0  0  0  0
    2.8227   33.4664   24.1802 C   0  0  0  0  0  0  0  0  0  0  0  0
    2.7372   32.7107   23.0076 C   0  0  0  0  0  0  0  0  0  0  0  0
    1.4855   32.3668   22.4868 C   0  0  0  0  0  0  0  0  0  0  0  0
    0.3063   32.7547   23.1149 C   0  0  0  0  0  0  0  0  0  0  0  0
    0.3925   33.5311   24.2672 C   0  0  0  0  0  0  0  0  0  0  0  0
    1.4608   31.6481   21.3222 O   0  0  0  0  0  0  0  0  0  0  0  0
    2.1915   35.6637   27.9177 O   0  0  0  0  0  0  0  0  0  0  0  0
    4.0292   33.8684   24.6873 O   0  0  0  0  0  0  0  0  0  0  0  0
    0.1923   38.2775   27.3154 H   0  0  0  0  0  0  0  0  0  0  0  0
    1.7437   38.4221   28.1085 H   0  0  0  0  0  0  0  0  0  0  0  0
    0.3760   37.5586   28.9046 H   0  0  0  0  0  0  0  0  0  0  0  0
    1.6325   37.0329   23.7961 H   0  0  0  0  0  0  0  0  0  0  0  0
    0.1765   38.2402   22.1953 H   0  0  0  0  0  0  0  0  0  0  0  0
   -2.2325   38.5416   22.7030 H   0  0  0  0  0  0  0  0  0  0  0  0
   -3.1836   37.6756   24.8341 H   0  0  0  0  0  0  0  0  0  0  0  0
   -1.7309   36.4905   26.4463 H   0  0  0  0  0  0  0  0  0  0  0  0
    3.6335   32.3976   22.4857 H   0  0  0  0  0  0  0  0  0  0  0  0
   -0.6724   32.4769   22.7324 H   0  0  0  0  0  0  0  0  0  0  0  0
   -0.5283   33.8917   24.7248 H   0  0  0  0  0  0  0  0  0  0  0  0
    0.5371   31.5125   21.0468 H   0  0  0  0  0  0  0  0  0  0  0  0
    4.7809   33.5069   24.1952 H   0  0  0  0  0  0  0  0  0  0  0  0
  1  2  2  0  0  0  0
  1 19  1  0  0  0  0
  2  3  1  0  0  0  0
  2  5  1  0  0  0  0
  3  4  2  0  0  0  0
  3  6  1  0  0  0  0
  4  7  1  0  0  0  0
  4 19  1  0  0  0  0
  5 13  2  0  0  0  0
  5 17  1  0  0  0  0
  6  8  2  0  0  0  0
  6 12  1  0  0  0  0
  7 21  1  0  0  0  0
  7 22  1  0  0  0  0
  7 23  1  0  0  0  0
  8  9  1  0  0  0  0
  8 24  1  0  0  0  0
  9 10  2  0  0  0  0
  9 25  1  0  0  0  0
 10 11  1  0  0  0  0
 10 26  1  0  0  0  0
 11 12  2  0  0  0  0
 11 27  1  0  0  0  0
 12 28  1  0  0  0  0
 13 14  1  0  0  0  0
 13 20  1  0  0  0  0
 14 15  2  0  0  0  0
 14 29  1  0  0  0  0
 15 16  1  0  0  0  0
 15 18  1  0  0  0  0
 16 17  2  0  0  0  0
 16 30  1  0  0  0  0
 17 31  1  0  0  0  0
 18 32  1  0  0  0  0
 20 33  1  0  0  0  0
M  END
$$$$
