00R
 OpenBabel04041914173D

 67 71  0  0  1  0  0  0  0  0999 V2000
   13.5883  -11.1210   20.0125 C   0  0  0  0  0  0  0  0  0  0  0  0
   14.4320  -12.4483   20.0379 C   0  0  2  0  0  0  0  0  0  0  0  0
   13.4853  -13.6570   20.3582 C   0  0  0  0  0  0  0  0  0  0  0  0
   12.4324  -13.3628   21.4511 C   0  0  0  0  0  0  0  0  0  0  0  0
   12.8889  -12.1296   22.2377 C   0  0  1  0  0  0  0  0  0  0  0  0
   12.9885  -10.8210   21.3886 C   0  0  0  0  0  0  0  0  0  0  0  0
   15.6491  -12.4241   20.9055 N   0  0  0  0  0  0  0  0  0  0  0  0
   11.9919  -11.9118   23.3500 C   0  0  1  0  0  0  0  0  0  0  0  0
   11.6194  -12.8160   24.2843 N   0  3  0  0  0  0  0  0  0  0  0  0
   10.7933  -12.2548   25.1318 C   0  0  1  0  0  0  0  0  0  0  0  0
   10.6254  -11.0070   24.8099 N   0  3  0  0  0  0  0  0  0  0  0  0
   11.3734  -10.7369   23.6794 C   0  0  0  0  0  0  0  0  0  0  0  0
   10.2613  -12.9443   26.1274 N   0  0  0  0  0  0  0  0  0  0  0  0
   17.3774  -17.1398   23.9503 C   0  0  0  0  0  0  0  0  0  0  0  0
   18.0327  -16.1292   23.1337 N   0  3  0  0  0  0  0  0  0  0  0  0
   19.1366  -16.3303   22.3010 C   0  0  0  0  0  0  0  0  0  0  0  0
   19.8081  -17.3478   22.1924 O   0  0  0  0  0  0  0  0  0  0  0  0
   19.3662  -15.1260   21.6360 N   0  3  0  0  0  0  0  0  0  0  0  0
   18.4155  -14.1993   22.0818 N   0  0  0  0  0  0  0  0  0  0  0  0
   17.5744  -14.8270   22.9887 C   0  0  0  0  0  0  0  0  0  0  0  0
   16.5875  -14.3304   23.5377 O   0  0  0  0  0  0  0  0  0  0  0  0
   20.6329  -14.6924   21.0710 C   0  0  0  0  0  0  0  0  0  0  0  0
   20.5093  -13.3556   20.4089 C   0  0  0  0  0  0  0  0  0  0  0  0
   19.4082  -12.5898   20.5424 C   0  0  0  0  0  0  0  0  0  0  0  0
   18.1643  -12.9608   21.3527 C   0  0  1  0  0  0  0  0  0  0  0  0
   16.8405  -13.0890   20.4301 C   0  0  0  0  0  0  0  0  0  0  0  0
   16.8545  -13.7669   19.3971 O   0  0  0  0  0  0  0  0  0  0  0  0
   18.3415  -17.9730   24.7544 C   0  0  0  0  0  0  0  0  0  0  0  0
   18.8045  -17.2004   26.2820 S   0  0  0  0  0  0  0  0  0  0  0  0
   17.6889  -16.3718   26.7169 O   0  0  0  0  0  0  0  0  0  0  0  0
   19.3116  -18.2212   27.1714 O   0  0  0  0  0  0  0  0  0  0  0  0
   20.1671  -16.0844   25.8683 C   0  0  0  0  0  0  0  0  0  0  0  0
   20.1683  -14.7657   26.3325 C   0  0  0  0  0  0  0  0  0  0  0  0
   21.1923  -13.8907   25.9467 C   0  0  0  0  0  0  0  0  0  0  0  0
   22.2119  -14.3222   25.0981 C   0  0  0  0  0  0  0  0  0  0  0  0
   22.2197  -15.6347   24.6376 C   0  0  0  0  0  0  0  0  0  0  0  0
   21.1993  -16.5123   25.0234 C   0  0  0  0  0  0  0  0  0  0  0  0
   14.1851  -10.2684   19.6550 H   0  0  0  0  0  0  0  0  0  0  0  0
   12.7597  -11.2188   19.2756 H   0  0  0  0  0  0  0  0  0  0  0  0
   14.8507  -12.6153   19.0412 H   0  0  0  0  0  0  0  0  0  0  0  0
   14.0959  -14.5222   20.6543 H   0  0  0  0  0  0  0  0  0  0  0  0
   12.9730  -13.9382   19.4227 H   0  0  0  0  0  0  0  0  0  0  0  0
   12.2915  -14.2345   22.1267 H   0  0  0  0  0  0  0  0  0  0  0  0
   11.4172  -13.2009   21.0292 H   0  0  0  0  0  0  0  0  0  0  0  0
   13.8435  -12.2923   22.7522 H   0  0  0  0  0  0  0  0  0  0  0  0
   11.9897  -10.3425   21.2909 H   0  0  0  0  0  0  0  0  0  0  0  0
   13.5977  -10.0759   21.9471 H   0  0  0  0  0  0  0  0  0  0  0  0
   15.5887  -11.9482   21.8137 H   0  0  0  0  0  0  0  0  0  0  0  0
   11.9505  -13.7854   24.3019 H   0  0  0  0  0  0  0  0  0  0  0  0
   11.4762   -9.7886   23.1394 H   0  0  0  0  0  0  0  0  0  0  0  0
    9.6287  -12.5209   26.7851 H   0  0  0  0  0  0  0  0  0  0  0  0
   10.4881  -13.9267   26.2300 H   0  0  0  0  0  0  0  0  0  0  0  0
   16.8227  -17.8062   23.2743 H   0  0  0  0  0  0  0  0  0  0  0  0
   16.6481  -16.6563   24.6074 H   0  0  0  0  0  0  0  0  0  0  0  0
   20.9477  -15.4458   20.3407 H   0  0  0  0  0  0  0  0  0  0  0  0
   21.3889  -14.6412   21.8635 H   0  0  0  0  0  0  0  0  0  0  0  0
   21.3424  -13.0040   19.7914 H   0  0  0  0  0  0  0  0  0  0  0  0
   19.3977  -11.6264   20.0418 H   0  0  0  0  0  0  0  0  0  0  0  0
   18.0158  -12.1704   22.0974 H   0  0  0  0  0  0  0  0  0  0  0  0
   17.8660  -18.9218   25.0163 H   0  0  0  0  0  0  0  0  0  0  0  0
   19.2347  -18.1945   24.1829 H   0  0  0  0  0  0  0  0  0  0  0  0
   19.3899  -14.4059   26.9986 H   0  0  0  0  0  0  0  0  0  0  0  0
   21.2022  -12.8654   26.3089 H   0  0  0  0  0  0  0  0  0  0  0  0
   23.0012  -13.6345   24.8037 H   0  0  0  0  0  0  0  0  0  0  0  0
   23.0207  -15.9735   23.9811 H   0  0  0  0  0  0  0  0  0  0  0  0
   21.2270  -17.5296   24.6500 H   0  0  0  0  0  0  0  0  0  0  0  0
   10.0357  -10.3045   25.2823 H   0  0  0  0  0  0  0  0  0  0  0  0
  1  6  1  0  0  0  0
  1  2  1  0  0  0  0
  1 38  1  0  0  0  0
  1 39  1  0  0  0  0
  2  7  1  0  0  0  0
  2  3  1  0  0  0  0
  2 40  1  6  0  0  0
  3  4  1  0  0  0  0
  3 41  1  0  0  0  0
  3 42  1  0  0  0  0
  4  5  1  0  0  0  0
  4 43  1  0  0  0  0
  4 44  1  0  0  0  0
  5  8  1  0  0  0  0
  5  6  1  0  0  0  0
  5 45  1  1  0  0  0
  6 46  1  0  0  0  0
  6 47  1  0  0  0  0
  7 26  1  0  0  0  0
  7 48  1  0  0  0  0
  8 12  1  1  0  0  0
  8  9  1  0  0  0  0
  9 10  1  0  0  0  0
  9 49  1  0  0  0  0
 10 13  1  6  0  0  0
 10 11  1  0  0  0  0
 11 12  1  0  0  0  0
 11 67  1  0  0  0  0
 12 50  1  0  0  0  0
 13 51  1  0  0  0  0
 13 52  1  0  0  0  0
 14 15  1  0  0  0  0
 14 28  1  0  0  0  0
 14 53  1  0  0  0  0
 14 54  1  0  0  0  0
 15 20  1  0  0  0  0
 15 16  1  0  0  0  0
 16 18  1  0  0  0  0
 16 17  2  0  0  0  0
 18 22  1  0  0  0  0
 18 19  1  0  0  0  0
 19 25  1  0  0  0  0
 19 20  1  0  0  0  0
 20 21  2  0  0  0  0
 22 23  1  0  0  0  0
 22 55  1  0  0  0  0
 22 56  1  0  0  0  0
 23 24  2  0  0  0  0
 23 57  1  0  0  0  0
 24 25  1  0  0  0  0
 24 58  1  0  0  0  0
 25 26  1  0  0  0  0
 25 59  1  1  0  0  0
 26 27  2  0  0  0  0
 28 29  1  0  0  0  0
 28 60  1  0  0  0  0
 28 61  1  0  0  0  0
 29 32  1  0  0  0  0
 29 31  2  0  0  0  0
 29 30  2  0  0  0  0
 32 37  1  0  0  0  0
 32 33  1  0  0  0  0
 33 34  1  0  0  0  0
 33 62  1  0  0  0  0
 34 35  1  0  0  0  0
 34 63  1  0  0  0  0
 35 36  1  0  0  0  0
 35 64  1  0  0  0  0
 36 37  1  0  0  0  0
 36 65  1  0  0  0  0
 37 66  1  0  0  0  0
M  CHG  4   9   1  11   1  15   1  18   1
M  END
$$$$
