01S
 OpenBabel04041915093D

 43 42  0  0  1  0  0  0  0  0999 V2000
   26.8574   59.7327   53.4499 C   0  0  0  0  0  0  0  0  0  0  0  0
   27.2868   58.5847   53.5566 O   0  0  0  0  0  0  0  0  0  0  0  0
   27.7612   60.8662   52.9962 C   0  0  2  0  0  0  0  0  0  0  0  0
   28.1765   60.6463   51.5607 C   0  0  0  0  0  0  0  0  0  0  0  0
   27.8779   61.4410   50.6801 O   0  0  0  0  0  0  0  0  0  0  0  0
   29.0175   60.9449   53.8845 C   0  0  0  0  0  0  0  0  0  0  0  0
   28.9393   61.9898   55.0080 C   0  0  0  0  0  0  0  0  0  0  0  0
   29.2490   63.3849   54.4652 C   0  0  0  0  0  0  0  0  0  0  0  0
   27.5998   61.9742   55.7426 C   0  0  0  0  0  0  0  0  0  0  0  0
   25.5545   60.0968   53.6883 N   0  0  0  0  0  0  0  0  0  0  0  0
   24.7043   59.0646   54.1328 O   0  0  0  0  0  0  0  0  0  0  0  0
   28.9033   59.4975   51.3482 N   0  0  0  0  0  0  0  0  0  0  0  0
   29.3344   59.1387   49.9994 C   0  0  2  0  0  0  0  0  0  0  0  0
   28.2535   58.3489   49.2240 C   0  0  0  0  0  0  0  0  0  0  0  0
   28.3911   58.0536   48.0387 O   0  0  0  0  0  0  0  0  0  0  0  0
   30.6348   58.3553   50.0889 C   0  0  0  0  0  0  0  0  0  0  0  0
   25.8786   56.1115   48.8346 C   0  0  0  0  0  0  0  0  0  0  0  0
   26.4710   55.2072   49.6702 N   0  0  0  0  0  0  0  0  0  0  0  0
   25.2004   55.7238   47.8879 O   0  0  0  0  0  0  0  0  0  0  0  0
   25.9123   57.5669   49.3013 C   0  0  0  0  0  0  0  0  0  0  0  0
   27.1472   57.9725   49.9588 N   0  0  0  0  0  0  0  0  0  0  0  0
   27.2142   61.8153   53.0011 H   0  0  0  0  0  0  0  0  0  0  0  0
   29.9075   61.1581   53.2742 H   0  0  0  0  0  0  0  0  0  0  0  0
   29.2151   59.9673   54.3453 H   0  0  0  0  0  0  0  0  0  0  0  0
   29.7231   61.7414   55.7353 H   0  0  0  0  0  0  0  0  0  0  0  0
   29.2215   64.1266   55.2678 H   0  0  0  0  0  0  0  0  0  0  0  0
   28.5349   63.6873   53.6930 H   0  0  0  0  0  0  0  0  0  0  0  0
   30.2521   63.4104   54.0230 H   0  0  0  0  0  0  0  0  0  0  0  0
   27.3738   60.9690   56.1142 H   0  0  0  0  0  0  0  0  0  0  0  0
   26.7753   62.2944   55.0968 H   0  0  0  0  0  0  0  0  0  0  0  0
   27.6159   62.6562   56.5955 H   0  0  0  0  0  0  0  0  0  0  0  0
   25.1863   61.0382   53.5940 H   0  0  0  0  0  0  0  0  0  0  0  0
   23.8466   59.5020   54.2808 H   0  0  0  0  0  0  0  0  0  0  0  0
   28.9750   58.8125   52.0828 H   0  0  0  0  0  0  0  0  0  0  0  0
   29.5136   60.0687   49.4466 H   0  0  0  0  0  0  0  0  0  0  0  0
   31.0088   58.1044   49.0898 H   0  0  0  0  0  0  0  0  0  0  0  0
   30.4939   57.4219   50.6437 H   0  0  0  0  0  0  0  0  0  0  0  0
   31.4012   58.9410   50.6064 H   0  0  0  0  0  0  0  0  0  0  0  0
   26.3836   54.2289   49.4324 H   0  0  0  0  0  0  0  0  0  0  0  0
   26.7986   55.4714   50.5877 H   0  0  0  0  0  0  0  0  0  0  0  0
   25.1096   57.6898   50.0363 H   0  0  0  0  0  0  0  0  0  0  0  0
   25.7203   58.2205   48.4442 H   0  0  0  0  0  0  0  0  0  0  0  0
   27.0909   58.3072   50.9107 H   0  0  0  0  0  0  0  0  0  0  0  0
  1 10  1  0  0  0  0
  1  3  1  0  0  0  0
  1  2  2  0  0  0  0
  3  6  1  0  0  0  0
  3  4  1  0  0  0  0
  3 22  1  1  0  0  0
  4  5  2  0  0  0  0
  4 12  1  0  0  0  0
  6  7  1  0  0  0  0
  6 23  1  0  0  0  0
  6 24  1  0  0  0  0
  7  9  1  0  0  0  0
  7  8  1  0  0  0  0
  7 25  1  0  0  0  0
  8 26  1  0  0  0  0
  8 27  1  0  0  0  0
  8 28  1  0  0  0  0
  9 29  1  0  0  0  0
  9 30  1  0  0  0  0
  9 31  1  0  0  0  0
 10 11  1  0  0  0  0
 10 32  1  0  0  0  0
 11 33  1  0  0  0  0
 12 13  1  0  0  0  0
 12 34  1  0  0  0  0
 13 14  1  0  0  0  0
 13 16  1  0  0  0  0
 13 35  1  6  0  0  0
 14 15  2  0  0  0  0
 14 21  1  0  0  0  0
 16 36  1  0  0  0  0
 16 37  1  0  0  0  0
 16 38  1  0  0  0  0
 17 20  1  0  0  0  0
 17 19  2  0  0  0  0
 17 18  1  0  0  0  0
 18 39  1  0  0  0  0
 18 40  1  0  0  0  0
 20 21  1  0  0  0  0
 20 41  1  0  0  0  0
 20 42  1  0  0  0  0
 21 43  1  0  0  0  0
M  END
$$$$
