0ED
 OpenBabel04041914123D

 93 95  0  0  1  0  0  0  0  0999 V2000
   29.6896   45.4741    1.2237 C   0  0  0  0  0  0  0  0  0  0  0  0
   29.6396   45.6031    2.4409 O   0  0  0  0  0  0  0  0  0  0  0  0
   30.0437   46.4067    0.3154 O   0  0  0  0  0  0  0  0  0  0  0  0
   30.5770   47.6502    0.7786 C   0  0  0  0  0  0  0  0  0  0  0  0
   31.8992   47.4461    1.4449 C   0  0  0  0  0  0  0  0  0  0  0  0
   32.9851   46.8718    0.7635 C   0  0  0  0  0  0  0  0  0  0  0  0
   34.1699   46.5963    1.4484 C   0  0  0  0  0  0  0  0  0  0  0  0
   34.2729   46.9037    2.8047 C   0  0  0  0  0  0  0  0  0  0  0  0
   33.2137   47.5116    3.4768 C   0  0  0  0  0  0  0  0  0  0  0  0
   32.0299   47.7745    2.7998 C   0  0  0  0  0  0  0  0  0  0  0  0
   29.3727   44.3020    0.6145 N   0  0  0  0  0  0  0  0  0  0  0  0
   29.4013   44.1531   -0.8288 C   0  0  0  0  0  0  0  0  0  0  0  0
   29.2533   42.7069   -1.2069 C   0  0  0  0  0  0  0  0  0  0  0  0
   30.5738   41.9518   -1.0778 C   0  0  2  0  0  0  0  0  0  0  0  0
   31.5658   41.9938   -2.3025 C   0  0  0  0  0  0  0  0  0  0  0  0
   31.6876   43.0921   -2.8753 O   0  0  0  0  0  0  0  0  0  0  0  0
   32.0243   40.8467   -2.5833 O   0  0  0  0  0  0  0  0  0  0  0  0
   30.1702   40.5341   -0.6867 N   0  3  0  0  0  0  0  0  0  0  0  0
   29.4853   39.7155   -1.7800 C   0  0  2  0  0  0  0  0  0  0  0  0
   28.0068   39.6263   -1.3446 C   0  0  0  0  0  0  0  0  0  0  0  0
   27.7113   39.6648   -0.1461 O   0  0  0  0  0  0  0  0  0  0  0  0
   30.1881   38.3520   -1.8004 C   0  0  0  0  0  0  0  0  0  0  0  0
   29.7120   37.2960   -2.8122 C   0  0  0  0  0  0  0  0  0  0  0  0
   30.0225   37.6954   -4.2541 C   0  0  0  0  0  0  0  0  0  0  0  0
   30.3595   35.9364   -2.4944 C   0  0  0  0  0  0  0  0  0  0  0  0
   27.0753   39.6144   -2.3395 N   0  0  0  0  0  0  0  0  0  0  0  0
   25.6623   39.4227   -2.0616 C   0  0  2  0  0  0  0  0  0  0  0  0
   25.3045   37.9879   -2.4802 C   0  0  0  0  0  0  0  0  0  0  0  0
   25.7684   37.4491   -3.4817 O   0  0  0  0  0  0  0  0  0  0  0  0
   24.7893   40.3846   -2.8964 C   0  0  0  0  0  0  0  0  0  0  0  0
   24.9133   41.8162   -2.4477 C   0  0  0  0  0  0  0  0  0  0  0  0
   24.2091   42.2805   -1.3289 C   0  0  0  0  0  0  0  0  0  0  0  0
   25.8288   42.6651   -3.0781 C   0  0  0  0  0  0  0  0  0  0  0  0
   24.5415   43.5075   -0.7561 C   0  0  0  0  0  0  0  0  0  0  0  0
   26.1618   43.8863   -2.4990 C   0  0  0  0  0  0  0  0  0  0  0  0
   25.5512   44.2873   -1.3137 C   0  0  0  0  0  0  0  0  0  0  0  0
   21.0270   39.1984   -5.5283 O   0  0  0  0  0  0  0  0  0  0  0  0
   20.3442   39.3698   -4.2814 C   0  0  0  0  0  0  0  0  0  0  0  0
   21.1082   38.7855   -3.0774 C   0  0  0  0  0  0  0  0  0  0  0  0
   21.5890   37.3773   -3.4002 N   0  3  0  0  0  0  0  0  0  0  0  0
   22.3043   37.3174   -4.7493 C   0  0  0  0  0  0  0  0  0  0  0  0
   21.2967   37.8175   -5.7936 C   0  0  0  0  0  0  0  0  0  0  0  0
   22.0814   36.5185   -2.2570 C   0  0  0  0  0  0  0  0  0  0  0  0
   23.5903   36.2315   -2.1937 C   0  0  0  0  0  0  0  0  0  0  0  0
   24.2924   37.4163   -1.7438 N   0  0  0  0  0  0  0  0  0  0  0  0
   29.8453   48.1480    1.4266 H   0  0  0  0  0  0  0  0  0  0  0  0
   30.7270   48.2857   -0.1015 H   0  0  0  0  0  0  0  0  0  0  0  0
   32.9035   46.6191   -0.2900 H   0  0  0  0  0  0  0  0  0  0  0  0
   35.0029   46.1332    0.9274 H   0  0  0  0  0  0  0  0  0  0  0  0
   35.1834   46.6690    3.3467 H   0  0  0  0  0  0  0  0  0  0  0  0
   33.2960   47.7688    4.5268 H   0  0  0  0  0  0  0  0  0  0  0  0
   31.1888   48.2083    3.3354 H   0  0  0  0  0  0  0  0  0  0  0  0
   29.0254   43.5713    1.2427 H   0  0  0  0  0  0  0  0  0  0  0  0
   30.3294   44.5832   -1.2094 H   0  0  0  0  0  0  0  0  0  0  0  0
   28.5694   44.7417   -1.2207 H   0  0  0  0  0  0  0  0  0  0  0  0
   28.8788   42.6269   -2.2264 H   0  0  0  0  0  0  0  0  0  0  0  0
   28.4879   42.2781   -0.5401 H   0  0  0  0  0  0  0  0  0  0  0  0
   31.1350   42.3178   -0.2093 H   0  0  0  0  0  0  0  0  0  0  0  0
   31.0567   40.0777   -0.4501 H   0  0  0  0  0  0  0  0  0  0  0  0
   29.5460   40.2453   -2.7413 H   0  0  0  0  0  0  0  0  0  0  0  0
   30.0988   37.9213   -0.7944 H   0  0  0  0  0  0  0  0  0  0  0  0
   31.2582   38.5194   -1.9749 H   0  0  0  0  0  0  0  0  0  0  0  0
   28.6320   37.1667   -2.7139 H   0  0  0  0  0  0  0  0  0  0  0  0
   29.7223   36.9022   -4.9477 H   0  0  0  0  0  0  0  0  0  0  0  0
   31.0909   37.8847   -4.4057 H   0  0  0  0  0  0  0  0  0  0  0  0
   29.4731   38.6007   -4.5282 H   0  0  0  0  0  0  0  0  0  0  0  0
   30.1625   35.6456   -1.4563 H   0  0  0  0  0  0  0  0  0  0  0  0
   31.4460   35.9476   -2.6388 H   0  0  0  0  0  0  0  0  0  0  0  0
   29.9439   35.1515   -3.1356 H   0  0  0  0  0  0  0  0  0  0  0  0
   27.3731   39.6047   -3.3113 H   0  0  0  0  0  0  0  0  0  0  0  0
   25.4596   39.5432   -0.9921 H   0  0  0  0  0  0  0  0  0  0  0  0
   23.7463   40.0954   -2.8214 H   0  0  0  0  0  0  0  0  0  0  0  0
   25.0471   40.3037   -3.9609 H   0  0  0  0  0  0  0  0  0  0  0  0
   23.4231   41.6855   -0.8724 H   0  0  0  0  0  0  0  0  0  0  0  0
   26.3185   42.3711   -4.0039 H   0  0  0  0  0  0  0  0  0  0  0  0
   24.0339   43.8488    0.1431 H   0  0  0  0  0  0  0  0  0  0  0  0
   26.9288   44.5099   -2.9536 H   0  0  0  0  0  0  0  0  0  0  0  0
   25.8568   45.2137   -0.8321 H   0  0  0  0  0  0  0  0  0  0  0  0
   19.3622   38.8901   -4.3620 H   0  0  0  0  0  0  0  0  0  0  0  0
   20.1844   40.4426   -4.1367 H   0  0  0  0  0  0  0  0  0  0  0  0
   20.4432   38.7110   -2.2129 H   0  0  0  0  0  0  0  0  0  0  0  0
   21.9700   39.3942   -2.8118 H   0  0  0  0  0  0  0  0  0  0  0  0
   22.5818   36.2789   -4.9341 H   0  0  0  0  0  0  0  0  0  0  0  0
   23.1808   37.9730   -4.7021 H   0  0  0  0  0  0  0  0  0  0  0  0
   21.6868   37.7138   -6.8078 H   0  0  0  0  0  0  0  0  0  0  0  0
   20.3541   37.2521   -5.7401 H   0  0  0  0  0  0  0  0  0  0  0  0
   21.5419   35.5836   -2.3489 H   0  0  0  0  0  0  0  0  0  0  0  0
   21.7779   37.0214   -1.3322 H   0  0  0  0  0  0  0  0  0  0  0  0
   23.9780   35.8642   -3.1498 H   0  0  0  0  0  0  0  0  0  0  0  0
   23.7653   35.4332   -1.4570 H   0  0  0  0  0  0  0  0  0  0  0  0
   24.1276   37.7537   -0.7991 H   0  0  0  0  0  0  0  0  0  0  0  0
   29.5534   40.5538    0.1378 H   0  0  0  0  0  0  0  0  0  0  0  0
   20.6773   36.8993   -3.6128 H   0  0  0  0  0  0  0  0  0  0  0  0
  1  2  2  0  0  0  0
  1  3  1  0  0  0  0
  1 11  1  0  0  0  0
  3  4  1  0  0  0  0
  4  5  1  0  0  0  0
  4 46  1  0  0  0  0
  4 47  1  0  0  0  0
  5  6  2  0  0  0  0
  5 10  1  0  0  0  0
  6  7  1  0  0  0  0
  6 48  1  0  0  0  0
  7  8  2  0  0  0  0
  7 49  1  0  0  0  0
  8  9  1  0  0  0  0
  8 50  1  0  0  0  0
  9 10  2  0  0  0  0
  9 51  1  0  0  0  0
 10 52  1  0  0  0  0
 11 12  1  0  0  0  0
 11 53  1  0  0  0  0
 12 13  1  0  0  0  0
 12 54  1  0  0  0  0
 12 55  1  0  0  0  0
 13 14  1  0  0  0  0
 13 56  1  0  0  0  0
 13 57  1  0  0  0  0
 14 15  1  0  0  0  0
 14 18  1  0  0  0  0
 14 58  1  1  0  0  0
 15 16  2  0  0  0  0
 15 17  1  0  0  0  0
 18 19  1  0  0  0  0
 18 59  1  0  0  0  0
 18 92  1  0  0  0  0
 19 20  1  0  0  0  0
 19 22  1  0  0  0  0
 19 60  1  6  0  0  0
 20 21  2  0  0  0  0
 20 26  1  0  0  0  0
 22 23  1  0  0  0  0
 22 61  1  0  0  0  0
 22 62  1  0  0  0  0
 23 24  1  0  0  0  0
 23 25  1  0  0  0  0
 23 63  1  0  0  0  0
 24 64  1  0  0  0  0
 24 65  1  0  0  0  0
 24 66  1  0  0  0  0
 25 67  1  0  0  0  0
 25 68  1  0  0  0  0
 25 69  1  0  0  0  0
 26 27  1  0  0  0  0
 26 70  1  0  0  0  0
 27 28  1  0  0  0  0
 27 30  1  0  0  0  0
 27 71  1  1  0  0  0
 28 29  2  0  0  0  0
 28 45  1  0  0  0  0
 30 31  1  0  0  0  0
 30 72  1  0  0  0  0
 30 73  1  0  0  0  0
 31 32  2  0  0  0  0
 31 33  1  0  0  0  0
 32 34  1  0  0  0  0
 32 74  1  0  0  0  0
 33 35  2  0  0  0  0
 33 75  1  0  0  0  0
 34 36  2  0  0  0  0
 34 76  1  0  0  0  0
 35 36  1  0  0  0  0
 35 77  1  0  0  0  0
 36 78  1  0  0  0  0
 37 38  1  0  0  0  0
 37 42  1  0  0  0  0
 38 39  1  0  0  0  0
 38 79  1  0  0  0  0
 38 80  1  0  0  0  0
 39 40  1  0  0  0  0
 39 81  1  0  0  0  0
 39 82  1  0  0  0  0
 40 41  1  0  0  0  0
 40 43  1  0  0  0  0
 40 93  1  0  0  0  0
 41 42  1  0  0  0  0
 41 83  1  0  0  0  0
 41 84  1  0  0  0  0
 42 85  1  0  0  0  0
 42 86  1  0  0  0  0
 43 44  1  0  0  0  0
 43 87  1  0  0  0  0
 43 88  1  0  0  0  0
 44 45  1  0  0  0  0
 44 89  1  0  0  0  0
 44 90  1  0  0  0  0
 45 91  1  0  0  0  0
M  CHG  2  18   1  40   1
M  END
$$$$
