0EM
 OpenBabel04041914523D

 96 97  0  0  1  0  0  0  0  0999 V2000
    1.5713   27.3666   20.3029 O   0  0  0  0  0  0  0  0  0  0  0  0
    2.3562   26.5473   19.8542 C   0  0  0  0  0  0  0  0  0  0  0  0
    2.2119   25.1978   19.8661 O   0  0  0  0  0  0  0  0  0  0  0  0
    1.0453   24.5467   20.4428 C   0  0  0  0  0  0  0  0  0  0  0  0
    0.9860   24.7643   21.9569 C   0  0  0  0  0  0  0  0  0  0  0  0
    1.2545   23.0384   20.2104 C   0  0  0  0  0  0  0  0  0  0  0  0
   -0.2448   24.9694   19.7323 C   0  0  0  0  0  0  0  0  0  0  0  0
    3.5358   26.8472   19.2481 N   0  0  0  0  0  0  0  0  0  0  0  0
    3.9619   28.2088   18.9067 C   0  0  2  0  0  0  0  0  0  0  0  0
    3.1124   28.7222   17.6941 C   0  0  0  0  0  0  0  0  0  0  0  0
    2.8144   27.9799   16.7584 O   0  0  0  0  0  0  0  0  0  0  0  0
    5.4553   28.2356   18.4828 C   0  0  0  0  0  0  0  0  0  0  0  0
    6.5071   28.0571   19.5696 C   0  0  0  0  0  0  0  0  0  0  0  0
    6.6325   26.8699   20.3039 C   0  0  0  0  0  0  0  0  0  0  0  0
    7.4568   29.0664   19.7930 C   0  0  0  0  0  0  0  0  0  0  0  0
    7.6540   26.7129   21.2517 C   0  0  0  0  0  0  0  0  0  0  0  0
    8.4664   28.9191   20.7516 C   0  0  0  0  0  0  0  0  0  0  0  0
    8.5615   27.7422   21.4858 C   0  0  0  0  0  0  0  0  0  0  0  0
    2.7712   30.0633   17.7042 N   0  0  0  0  0  0  0  0  0  0  0  0
    2.1421   30.7475   16.5430 C   0  0  2  0  0  0  0  0  0  0  0  0
    2.8927   32.0814   16.3333 C   0  0  0  0  0  0  0  0  0  0  0  0
    2.5933   33.0846   16.9544 O   0  0  0  0  0  0  0  0  0  0  0  0
    0.6405   31.0586   16.7570 C   0  0  0  0  0  0  0  0  0  0  0  0
   -0.0419   31.6614   15.5543 C   0  0  0  0  0  0  0  0  0  0  0  0
   -1.2901   32.2432   15.6051 N   0  3  0  0  0  0  0  0  0  0  0  0
    0.3411   31.8209   14.2358 C   0  0  0  0  0  0  0  0  0  0  0  0
   -1.5921   32.7044   14.3585 C   0  0  0  0  0  0  0  0  0  0  0  0
   -0.6305   32.4521   13.5041 N   0  0  0  0  0  0  0  0  0  0  0  0
    4.0343   31.9851   15.5528 N   0  0  0  0  0  0  0  0  0  0  0  0
    4.8766   33.1651   15.2616 C   0  0  1  0  0  0  0  0  0  0  0  0
    6.3097   32.9306   15.7753 C   0  0  0  0  0  0  0  0  0  0  0  0
    6.4594   32.5294   17.2524 C   0  0  0  0  0  0  0  0  0  0  0  0
    7.9495   32.3183   17.5767 C   0  0  0  0  0  0  0  0  0  0  0  0
    5.8602   33.5513   18.2117 C   0  0  0  0  0  0  0  0  0  0  0  0
    4.9384   33.4179   13.3919 P   0  0  2  0  0  0  0  0  0  0  0  0
    5.0308   32.0269   12.7804 O   0  0  0  0  0  0  0  0  0  0  0  0
    5.9960   34.4580   13.0868 O   0  0  0  0  0  0  0  0  0  0  0  0
    3.3370   34.1169   12.9256 C   0  0  0  0  0  0  0  0  0  0  0  0
    3.1350   35.5322   13.3906 C   0  0  0  0  0  0  0  0  0  0  0  0
    2.6396   35.7849   14.4914 O   0  0  0  0  0  0  0  0  0  0  0  0
    3.4816   36.5377   12.4992 N   0  0  0  0  0  0  0  0  0  0  0  0
    3.5985   37.8888   13.0150 C   0  0  0  0  0  0  0  0  0  0  0  0
    3.7903   38.9613   11.9376 C   0  0  2  0  0  0  0  0  0  0  0  0
    3.9971   40.3458   12.5926 C   0  0  0  0  0  0  0  0  0  0  0  0
    2.5685   38.9884   11.0189 C   0  0  0  0  0  0  0  0  0  0  0  0
    4.7195   41.3041   11.6566 C   0  0  0  0  0  0  0  0  0  0  0  0
    0.1347   24.2370   22.4026 H   0  0  0  0  0  0  0  0  0  0  0  0
    0.9086   25.8223   22.2200 H   0  0  0  0  0  0  0  0  0  0  0  0
    1.9004   24.3868   22.4303 H   0  0  0  0  0  0  0  0  0  0  0  0
    0.4432   22.4452   20.6491 H   0  0  0  0  0  0  0  0  0  0  0  0
    2.1994   22.7057   20.6557 H   0  0  0  0  0  0  0  0  0  0  0  0
    1.3143   22.8051   19.1424 H   0  0  0  0  0  0  0  0  0  0  0  0
   -1.1226   24.4703   20.1581 H   0  0  0  0  0  0  0  0  0  0  0  0
   -0.1954   24.7198   18.6659 H   0  0  0  0  0  0  0  0  0  0  0  0
   -0.4148   26.0473   19.7907 H   0  0  0  0  0  0  0  0  0  0  0  0
    4.0113   26.0581   18.8323 H   0  0  0  0  0  0  0  0  0  0  0  0
    3.7845   28.8536   19.7744 H   0  0  0  0  0  0  0  0  0  0  0  0
    5.6516   29.1850   17.9714 H   0  0  0  0  0  0  0  0  0  0  0  0
    5.6411   27.4584   17.7263 H   0  0  0  0  0  0  0  0  0  0  0  0
    5.9557   26.0383   20.1386 H   0  0  0  0  0  0  0  0  0  0  0  0
    7.4335   29.9785   19.2045 H   0  0  0  0  0  0  0  0  0  0  0  0
    7.7441   25.7791   21.8007 H   0  0  0  0  0  0  0  0  0  0  0  0
    9.1831   29.7210   20.9128 H   0  0  0  0  0  0  0  0  0  0  0  0
    9.3472   27.6232   22.2282 H   0  0  0  0  0  0  0  0  0  0  0  0
    3.0597   30.6578   18.4732 H   0  0  0  0  0  0  0  0  0  0  0  0
    2.2617   30.1172   15.6576 H   0  0  0  0  0  0  0  0  0  0  0  0
    0.5117   31.7437   17.6097 H   0  0  0  0  0  0  0  0  0  0  0  0
    0.1077   30.1384   17.0230 H   0  0  0  0  0  0  0  0  0  0  0  0
   -1.8776   32.3334   16.4213 H   0  0  0  0  0  0  0  0  0  0  0  0
    1.2750   31.5241   13.7732 H   0  0  0  0  0  0  0  0  0  0  0  0
   -2.5203   33.2120   14.1258 H   0  0  0  0  0  0  0  0  0  0  0  0
    4.2195   31.1619   14.9917 H   0  0  0  0  0  0  0  0  0  0  0  0
    4.4420   34.0628   15.6923 H   0  0  0  0  0  0  0  0  0  0  0  0
    6.8798   33.8572   15.5953 H   0  0  0  0  0  0  0  0  0  0  0  0
    6.7871   32.1668   15.1584 H   0  0  0  0  0  0  0  0  0  0  0  0
    5.9551   31.5694   17.4169 H   0  0  0  0  0  0  0  0  0  0  0  0
    8.0955   32.0626   18.6317 H   0  0  0  0  0  0  0  0  0  0  0  0
    8.5391   33.2181   17.3721 H   0  0  0  0  0  0  0  0  0  0  0  0
    8.3634   31.5003   16.9760 H   0  0  0  0  0  0  0  0  0  0  0  0
    4.8011   33.7135   18.0033 H   0  0  0  0  0  0  0  0  0  0  0  0
    6.3692   34.5171   18.1408 H   0  0  0  0  0  0  0  0  0  0  0  0
    5.9321   33.2002   19.2462 H   0  0  0  0  0  0  0  0  0  0  0  0
    2.5291   33.5083   13.3401 H   0  0  0  0  0  0  0  0  0  0  0  0
    3.2366   34.0692   11.8347 H   0  0  0  0  0  0  0  0  0  0  0  0
    4.0266   36.2641   11.6871 H   0  0  0  0  0  0  0  0  0  0  0  0
    4.4440   37.9040   13.7153 H   0  0  0  0  0  0  0  0  0  0  0  0
    2.6925   38.1088   13.5926 H   0  0  0  0  0  0  0  0  0  0  0  0
    4.6782   38.7106   11.3419 H   0  0  0  0  0  0  0  0  0  0  0  0
    4.5890   40.2556   13.5115 H   0  0  0  0  0  0  0  0  0  0  0  0
    3.0328   40.7823   12.8830 H   0  0  0  0  0  0  0  0  0  0  0  0
    2.4140   38.0124   10.5493 H   0  0  0  0  0  0  0  0  0  0  0  0
    2.6812   39.7275   10.2215 H   0  0  0  0  0  0  0  0  0  0  0  0
    1.6644   39.2348   11.5873 H   0  0  0  0  0  0  0  0  0  0  0  0
    4.8576   42.2781   12.1357 H   0  0  0  0  0  0  0  0  0  0  0  0
    4.1577   41.4564   10.7312 H   0  0  0  0  0  0  0  0  0  0  0  0
    5.7081   40.9102   11.3988 H   0  0  0  0  0  0  0  0  0  0  0  0
  1  2  2  0  0  0  0
  2  3  1  0  0  0  0
  2  8  1  0  0  0  0
  3  4  1  0  0  0  0
  4  7  1  0  0  0  0
  4  6  1  0  0  0  0
  4  5  1  0  0  0  0
  5 47  1  0  0  0  0
  5 48  1  0  0  0  0
  5 49  1  0  0  0  0
  6 50  1  0  0  0  0
  6 51  1  0  0  0  0
  6 52  1  0  0  0  0
  7 53  1  0  0  0  0
  7 54  1  0  0  0  0
  7 55  1  0  0  0  0
  8  9  1  0  0  0  0
  8 56  1  0  0  0  0
  9 10  1  0  0  0  0
  9 12  1  0  0  0  0
  9 57  1  1  0  0  0
 10 11  2  0  0  0  0
 10 19  1  0  0  0  0
 12 13  1  0  0  0  0
 12 58  1  0  0  0  0
 12 59  1  0  0  0  0
 13 15  2  0  0  0  0
 13 14  1  0  0  0  0
 14 16  2  0  0  0  0
 14 60  1  0  0  0  0
 15 17  1  0  0  0  0
 15 61  1  0  0  0  0
 16 18  1  0  0  0  0
 16 62  1  0  0  0  0
 17 18  2  0  0  0  0
 17 63  1  0  0  0  0
 18 64  1  0  0  0  0
 19 20  1  0  0  0  0
 19 65  1  0  0  0  0
 20 21  1  0  0  0  0
 20 23  1  0  0  0  0
 20 66  1  6  0  0  0
 21 22  2  0  0  0  0
 21 29  1  0  0  0  0
 23 24  1  0  0  0  0
 23 67  1  0  0  0  0
 23 68  1  0  0  0  0
 24 26  2  0  0  0  0
 24 25  1  0  0  0  0
 25 27  2  0  0  0  0
 25 69  1  0  0  0  0
 26 28  1  0  0  0  0
 26 70  1  0  0  0  0
 27 28  1  0  0  0  0
 27 71  1  0  0  0  0
 29 30  1  0  0  0  0
 29 72  1  0  0  0  0
 30 35  1  0  0  0  0
 30 31  1  0  0  0  0
 30 73  1  1  0  0  0
 31 32  1  0  0  0  0
 31 74  1  0  0  0  0
 31 75  1  0  0  0  0
 32 34  1  0  0  0  0
 32 33  1  0  0  0  0
 32 76  1  0  0  0  0
 33 77  1  0  0  0  0
 33 78  1  0  0  0  0
 33 79  1  0  0  0  0
 34 80  1  0  0  0  0
 34 81  1  0  0  0  0
 34 82  1  0  0  0  0
 35 38  1  6  0  0  0
 35 37  2  0  0  0  0
 35 36  1  0  0  0  0
 38 39  1  0  0  0  0
 38 83  1  0  0  0  0
 38 84  1  0  0  0  0
 39 40  2  0  0  0  0
 39 41  1  0  0  0  0
 41 42  1  0  0  0  0
 41 85  1  0  0  0  0
 42 43  1  0  0  0  0
 42 86  1  0  0  0  0
 42 87  1  0  0  0  0
 43 45  1  0  0  0  0
 43 44  1  0  0  0  0
 43 88  1  6  0  0  0
 44 46  1  0  0  0  0
 44 89  1  0  0  0  0
 44 90  1  0  0  0  0
 45 91  1  0  0  0  0
 45 92  1  0  0  0  0
 45 93  1  0  0  0  0
 46 94  1  0  0  0  0
 46 95  1  0  0  0  0
 46 96  1  0  0  0  0
M  CHG  1  25   1
M  END
$$$$
