0PQ
 OpenBabel04041916153D

 65 67  0  0  1  0  0  0  0  0999 V2000
   34.0758   41.4229   -8.5169 N   0  3  0  0  0  0  0  0  0  0  0  0
   34.4267   40.9575   -7.1407 C   0  0  2  0  0  0  0  0  0  0  0  0
   35.3362   42.2598   -6.2016 P   0  0  1  0  0  0  0  0  0  0  0  0
   36.5829   42.6409   -6.9042 O   0  0  0  0  0  0  0  0  0  0  0  0
   34.2779   43.3408   -6.0084 O   0  0  0  0  0  0  0  0  0  0  0  0
   35.0026   39.5818   -7.3714 C   0  0  0  0  0  0  0  0  0  0  0  0
   33.9231   38.6380   -7.8879 C   0  0  0  0  0  0  0  0  0  0  0  0
   32.8683   38.2533   -7.0722 C   0  0  0  0  0  0  0  0  0  0  0  0
   33.9978   38.1637   -9.2036 C   0  0  0  0  0  0  0  0  0  0  0  0
   31.9059   37.3653   -7.5790 C   0  0  0  0  0  0  0  0  0  0  0  0
   33.0107   37.3170   -9.7027 C   0  0  0  0  0  0  0  0  0  0  0  0
   31.9787   36.9135   -8.8879 C   0  0  0  0  0  0  0  0  0  0  0  0
   35.6149   41.3150   -4.7069 C   0  0  0  0  0  0  0  0  0  0  0  0
   36.6145   41.9924   -3.7838 C   0  0  1  0  0  0  0  0  0  0  0  0
   35.9246   42.2137   -2.4412 C   0  0  0  0  0  0  0  0  0  0  0  0
   36.7493   42.9260   -1.4090 C   0  0  0  0  0  0  0  0  0  0  0  0
   37.0903   44.2688   -1.5640 C   0  0  0  0  0  0  0  0  0  0  0  0
   37.1799   42.2425   -0.2732 C   0  0  0  0  0  0  0  0  0  0  0  0
   37.8674   44.9225   -0.6105 C   0  0  0  0  0  0  0  0  0  0  0  0
   37.9787   42.8848    0.6671 C   0  0  0  0  0  0  0  0  0  0  0  0
   38.3106   44.2243    0.5054 C   0  0  0  0  0  0  0  0  0  0  0  0
   37.9366   41.2175   -3.6487 C   0  0  0  0  0  0  0  0  0  0  0  0
   39.0144   41.7385   -3.6613 O   0  0  0  0  0  0  0  0  0  0  0  0
   37.7317   39.9133   -3.3234 N   0  0  0  0  0  0  0  0  0  0  0  0
   38.7212   38.8088   -3.2269 C   0  0  2  0  0  0  0  0  0  0  0  0
   38.7795   38.0216   -4.5634 C   0  0  0  0  0  0  0  0  0  0  0  0
   37.6585   37.7732   -5.0960 O   0  0  0  0  0  0  0  0  0  0  0  0
   38.1559   37.9489   -2.0970 C   0  0  0  0  0  0  0  0  0  0  0  0
   38.8090   36.6941   -1.6051 C   0  0  0  0  0  0  0  0  0  0  0  0
   40.0789   36.7004   -1.0457 C   0  0  0  0  0  0  0  0  0  0  0  0
   38.0974   35.4942   -1.6292 C   0  0  0  0  0  0  0  0  0  0  0  0
   40.6563   35.5450   -0.5360 C   0  0  0  0  0  0  0  0  0  0  0  0
   38.6733   34.3307   -1.1309 C   0  0  0  0  0  0  0  0  0  0  0  0
   39.9498   34.3550   -0.5842 C   0  0  0  0  0  0  0  0  0  0  0  0
   39.9474   37.7641   -4.9737 O   0  0  0  0  0  0  0  0  0  0  0  0
   33.5990   40.6742   -9.0060 H   0  0  0  0  0  0  0  0  0  0  0  0
   33.5137   42.2726   -8.4076 H   0  0  0  0  0  0  0  0  0  0  0  0
   33.4943   40.8293   -6.5664 H   0  0  0  0  0  0  0  0  0  0  0  0
   35.3908   39.1570   -6.4607 H   0  0  0  0  0  0  0  0  0  0  0  0
   35.7931   39.6651   -8.1217 H   0  0  0  0  0  0  0  0  0  0  0  0
   32.8011   38.6103   -6.0444 H   0  0  0  0  0  0  0  0  0  0  0  0
   34.8232   38.4214   -9.8460 H   0  0  0  0  0  0  0  0  0  0  0  0
   31.1079   37.0259   -6.9347 H   0  0  0  0  0  0  0  0  0  0  0  0
   33.0879   36.9833  -10.7304 H   0  0  0  0  0  0  0  0  0  0  0  0
   31.2218   36.2336   -9.2753 H   0  0  0  0  0  0  0  0  0  0  0  0
   35.9585   40.3273   -5.0181 H   0  0  0  0  0  0  0  0  0  0  0  0
   34.6330   41.1898   -4.2357 H   0  0  0  0  0  0  0  0  0  0  0  0
   36.8767   42.9526   -4.2252 H   0  0  0  0  0  0  0  0  0  0  0  0
   35.6093   41.2472   -2.0247 H   0  0  0  0  0  0  0  0  0  0  0  0
   35.0183   42.8107   -2.6090 H   0  0  0  0  0  0  0  0  0  0  0  0
   36.7447   44.8175   -2.4358 H   0  0  0  0  0  0  0  0  0  0  0  0
   36.8937   41.2045   -0.1196 H   0  0  0  0  0  0  0  0  0  0  0  0
   38.1309   45.9676   -0.7457 H   0  0  0  0  0  0  0  0  0  0  0  0
   38.3482   42.3317    1.5231 H   0  0  0  0  0  0  0  0  0  0  0  0
   38.9140   44.7253    1.2530 H   0  0  0  0  0  0  0  0  0  0  0  0
   36.7930   39.5933   -3.3413 H   0  0  0  0  0  0  0  0  0  0  0  0
   39.7029   39.2030   -2.9498 H   0  0  0  0  0  0  0  0  0  0  0  0
   37.1369   37.6692   -2.3973 H   0  0  0  0  0  0  0  0  0  0  0  0
   38.0763   38.6094   -1.2183 H   0  0  0  0  0  0  0  0  0  0  0  0
   40.6329   37.6399   -1.0052 H   0  0  0  0  0  0  0  0  0  0  0  0
   37.0952   35.4610   -2.0532 H   0  0  0  0  0  0  0  0  0  0  0  0
   41.6571   35.5789   -0.1151 H   0  0  0  0  0  0  0  0  0  0  0  0
   38.1191   33.3988   -1.1797 H   0  0  0  0  0  0  0  0  0  0  0  0
   40.3909   33.4415   -0.1975 H   0  0  0  0  0  0  0  0  0  0  0  0
   34.9689   41.6684   -8.9587 H   0  0  0  0  0  0  0  0  0  0  0  0
  1  2  1  0  0  0  0
  1 36  1  0  0  0  0
  1 37  1  0  0  0  0
  1 65  1  0  0  0  0
  2  3  1  0  0  0  0
  2  6  1  0  0  0  0
  2 38  1  1  0  0  0
  3  4  2  6  0  0  0
  3  5  1  0  0  0  0
  3 13  1  0  0  0  0
  6  7  1  0  0  0  0
  6 39  1  0  0  0  0
  6 40  1  0  0  0  0
  7  8  2  0  0  0  0
  7  9  1  0  0  0  0
  8 10  1  0  0  0  0
  8 41  1  0  0  0  0
  9 11  2  0  0  0  0
  9 42  1  0  0  0  0
 10 12  2  0  0  0  0
 10 43  1  0  0  0  0
 11 12  1  0  0  0  0
 11 44  1  0  0  0  0
 12 45  1  0  0  0  0
 13 14  1  0  0  0  0
 13 46  1  0  0  0  0
 13 47  1  0  0  0  0
 14 15  1  0  0  0  0
 14 22  1  0  0  0  0
 14 48  1  6  0  0  0
 15 16  1  0  0  0  0
 15 49  1  0  0  0  0
 15 50  1  0  0  0  0
 16 17  2  0  0  0  0
 16 18  1  0  0  0  0
 17 19  1  0  0  0  0
 17 51  1  0  0  0  0
 18 20  2  0  0  0  0
 18 52  1  0  0  0  0
 19 21  2  0  0  0  0
 19 53  1  0  0  0  0
 20 21  1  0  0  0  0
 20 54  1  0  0  0  0
 21 55  1  0  0  0  0
 22 23  2  0  0  0  0
 22 24  1  0  0  0  0
 24 25  1  0  0  0  0
 24 56  1  0  0  0  0
 25 28  1  0  0  0  0
 25 26  1  0  0  0  0
 25 57  1  1  0  0  0
 26 27  2  0  0  0  0
 26 35  1  0  0  0  0
 28 29  1  0  0  0  0
 28 58  1  0  0  0  0
 28 59  1  0  0  0  0
 29 30  2  0  0  0  0
 29 31  1  0  0  0  0
 30 32  1  0  0  0  0
 30 60  1  0  0  0  0
 31 33  2  0  0  0  0
 31 61  1  0  0  0  0
 32 34  2  0  0  0  0
 32 62  1  0  0  0  0
 33 34  1  0  0  0  0
 33 63  1  0  0  0  0
 34 64  1  0  0  0  0
M  CHG  1   1   1
M  END
$$$$
