0QN
 OpenBabel04041914283D

 48 48  0  0  1  0  0  0  0  0999 V2000
   40.8505   23.4937   37.6314 C   0  0  0  0  0  0  0  0  0  0  0  0
   41.2867   24.6614   38.5458 C   0  0  0  0  0  0  0  0  0  0  0  0
   40.2570   23.6497   36.5600 O   0  0  0  0  0  0  0  0  0  0  0  0
   41.9460   24.2504   39.6727 F   0  0  0  0  0  0  0  0  0  0  0  0
   42.1297   25.5225   37.9134 F   0  0  0  0  0  0  0  0  0  0  0  0
   40.2193   25.3851   38.9714 F   0  0  0  0  0  0  0  0  0  0  0  0
   41.1653   22.2369   38.0874 N   0  0  0  0  0  0  0  0  0  0  0  0
   40.8482   21.0237   37.3466 C   0  0  2  0  0  0  0  0  0  0  0  0
   39.2999   20.8858   37.3349 C   0  0  0  0  0  0  0  0  0  0  0  0
   38.6041   21.1223   38.3264 O   0  0  0  0  0  0  0  0  0  0  0  0
   41.6708   19.9062   38.0227 C   0  0  0  0  0  0  0  0  0  0  0  0
   41.0231   19.3487   39.2832 C   0  0  0  0  0  0  0  0  0  0  0  0
   41.9934   18.7928   37.0465 C   0  0  0  0  0  0  0  0  0  0  0  0
   38.7491   20.5509   36.1140 N   0  0  0  0  0  0  0  0  0  0  0  0
   37.3097   20.3472   35.9874 C   0  0  2  0  0  0  0  0  0  0  0  0
   37.0303   19.0049   36.6426 C   0  0  0  0  0  0  0  0  0  0  0  0
   37.5100   17.9561   36.1828 O   0  0  0  0  0  0  0  0  0  0  0  0
   36.8244   20.2716   34.5536 C   0  0  0  0  0  0  0  0  0  0  0  0
   36.3062   19.1885   37.7772 N   0  0  0  0  0  0  0  0  0  0  0  0
   35.9824   18.2055   38.7034 C   0  0  0  0  0  0  0  0  0  0  0  0
   35.3670   18.6380   39.8677 C   0  0  0  0  0  0  0  0  0  0  0  0
   35.0409   17.6934   40.8497 C   0  0  0  0  0  0  0  0  0  0  0  0
   35.3314   16.3299   40.6706 C   0  0  0  0  0  0  0  0  0  0  0  0
   35.9235   15.9276   39.4738 C   0  0  0  0  0  0  0  0  0  0  0  0
   36.2518   16.8722   38.4995 C   0  0  0  0  0  0  0  0  0  0  0  0
   35.0369   15.3557   41.7879 C   0  0  0  0  0  0  0  0  0  0  0  0
   35.4183   14.0693   41.5572 F   0  0  0  0  0  0  0  0  0  0  0  0
   35.6652   15.7263   42.9418 F   0  0  0  0  0  0  0  0  0  0  0  0
   33.7072   15.3066   42.0824 F   0  0  0  0  0  0  0  0  0  0  0  0
   41.5181   22.1321   39.0331 H   0  0  0  0  0  0  0  0  0  0  0  0
   41.1789   21.1525   36.3070 H   0  0  0  0  0  0  0  0  0  0  0  0
   42.6378   20.3367   38.3359 H   0  0  0  0  0  0  0  0  0  0  0  0
   41.6668   18.5940   39.7480 H   0  0  0  0  0  0  0  0  0  0  0  0
   40.0653   18.8803   39.0452 H   0  0  0  0  0  0  0  0  0  0  0  0
   40.8559   20.1435   40.0169 H   0  0  0  0  0  0  0  0  0  0  0  0
   42.4871   19.2063   36.1619 H   0  0  0  0  0  0  0  0  0  0  0  0
   41.0786   18.2835   36.7401 H   0  0  0  0  0  0  0  0  0  0  0  0
   42.6722   18.0637   37.5023 H   0  0  0  0  0  0  0  0  0  0  0  0
   39.3234   20.4450   35.2944 H   0  0  0  0  0  0  0  0  0  0  0  0
   36.7828   21.1524   36.5095 H   0  0  0  0  0  0  0  0  0  0  0  0
   35.7372   20.0996   34.5353 H   0  0  0  0  0  0  0  0  0  0  0  0
   37.2980   19.4390   34.0268 H   0  0  0  0  0  0  0  0  0  0  0  0
   37.0430   21.1976   34.0286 H   0  0  0  0  0  0  0  0  0  0  0  0
   36.0865   20.1400   38.0445 H   0  0  0  0  0  0  0  0  0  0  0  0
   35.1517   19.6809   40.0410 H   0  0  0  0  0  0  0  0  0  0  0  0
   34.5705   18.0453   41.7593 H   0  0  0  0  0  0  0  0  0  0  0  0
   36.1634   14.8868   39.2866 H   0  0  0  0  0  0  0  0  0  0  0  0
   36.7369   16.5125   37.5966 H   0  0  0  0  0  0  0  0  0  0  0  0
  1  3  2  0  0  0  0
  1  2  1  0  0  0  0
  1  7  1  0  0  0  0
  2  6  1  0  0  0  0
  2  5  1  0  0  0  0
  2  4  1  0  0  0  0
  7  8  1  0  0  0  0
  7 30  1  0  0  0  0
  8  9  1  0  0  0  0
  8 11  1  0  0  0  0
  8 31  1  6  0  0  0
  9 10  2  0  0  0  0
  9 14  1  0  0  0  0
 11 12  1  0  0  0  0
 11 13  1  0  0  0  0
 11 32  1  0  0  0  0
 12 33  1  0  0  0  0
 12 34  1  0  0  0  0
 12 35  1  0  0  0  0
 13 36  1  0  0  0  0
 13 37  1  0  0  0  0
 13 38  1  0  0  0  0
 14 15  1  0  0  0  0
 14 39  1  0  0  0  0
 15 16  1  0  0  0  0
 15 18  1  0  0  0  0
 15 40  1  1  0  0  0
 16 17  2  0  0  0  0
 16 19  1  0  0  0  0
 18 41  1  0  0  0  0
 18 42  1  0  0  0  0
 18 43  1  0  0  0  0
 19 20  1  0  0  0  0
 19 44  1  0  0  0  0
 20 25  2  0  0  0  0
 20 21  1  0  0  0  0
 21 22  2  0  0  0  0
 21 45  1  0  0  0  0
 22 23  1  0  0  0  0
 22 46  1  0  0  0  0
 23 26  1  0  0  0  0
 23 24  2  0  0  0  0
 24 25  1  0  0  0  0
 24 47  1  0  0  0  0
 25 48  1  0  0  0  0
 26 29  1  0  0  0  0
 26 28  1  0  0  0  0
 26 27  1  0  0  0  0
M  END
$$$$
