0Z1
 OpenBabel04041914283D

 64 65  0  0  1  0  0  0  0  0999 V2000
   41.0339   23.5033   37.5064 C   0  0  0  0  0  0  0  0  0  0  0  0
   40.5171   23.5025   36.4003 O   0  0  0  0  0  0  0  0  0  0  0  0
   41.3419   24.7877   38.3319 C   0  0  0  0  0  0  0  0  0  0  0  0
   40.2845   25.6411   38.3645 F   0  0  0  0  0  0  0  0  0  0  0  0
   41.6640   24.5216   39.6341 F   0  0  0  0  0  0  0  0  0  0  0  0
   42.3963   25.4760   37.8185 F   0  0  0  0  0  0  0  0  0  0  0  0
   41.3695   22.3041   38.1284 N   0  0  0  0  0  0  0  0  0  0  0  0
   40.9613   20.9854   37.6154 C   0  0  2  0  0  0  0  0  0  0  0  0
   39.4168   20.9622   37.4255 C   0  0  0  0  0  0  0  0  0  0  0  0
   38.6856   21.2728   38.3715 O   0  0  0  0  0  0  0  0  0  0  0  0
   41.4335   19.9807   38.6992 C   0  0  0  0  0  0  0  0  0  0  0  0
   40.6687   18.6757   38.8479 C   0  0  0  0  0  0  0  0  0  0  0  0
   41.5619   17.4422   38.7293 C   0  0  0  0  0  0  0  0  0  0  0  0
   40.6474   16.2570   38.4715 C   0  0  0  0  0  0  0  0  0  0  0  0
   41.4120   15.0009   38.4879 N   0  3  0  0  0  0  0  0  0  0  0  0
   38.8703   20.5354   36.2366 N   0  0  0  0  0  0  0  0  0  0  0  0
   37.4140   20.4107   36.0876 C   0  0  2  0  0  0  0  0  0  0  0  0
   36.9505   19.1012   36.7514 C   0  0  0  0  0  0  0  0  0  0  0  0
   37.0274   18.0028   36.2066 O   0  0  0  0  0  0  0  0  0  0  0  0
   37.1478   20.4442   34.5942 C   0  0  0  0  0  0  0  0  0  0  0  0
   38.4562   19.9860   33.9725 C   0  0  0  0  0  0  0  0  0  0  0  0
   39.5360   20.4239   34.9522 C   0  0  0  0  0  0  0  0  0  0  0  0
   36.5605   19.3506   38.0523 N   0  0  0  0  0  0  0  0  0  0  0  0
   36.2293   18.4203   39.0323 C   0  0  0  0  0  0  0  0  0  0  0  0
   36.6612   17.1019   38.9698 C   0  0  0  0  0  0  0  0  0  0  0  0
   36.3836   16.2349   40.0167 C   0  0  0  0  0  0  0  0  0  0  0  0
   35.6698   16.6715   41.1386 C   0  0  0  0  0  0  0  0  0  0  0  0
   35.2096   17.9970   41.1731 C   0  0  0  0  0  0  0  0  0  0  0  0
   35.4965   18.8699   40.1293 C   0  0  0  0  0  0  0  0  0  0  0  0
   35.3449   15.7426   42.2939 C   0  0  0  0  0  0  0  0  0  0  0  0
   36.1050   14.4135   42.2476 C   0  0  0  0  0  0  0  0  0  0  0  0
   33.8449   15.4723   42.2924 C   0  0  0  0  0  0  0  0  0  0  0  0
   41.9339   22.3484   38.9717 H   0  0  0  0  0  0  0  0  0  0  0  0
   41.4741   20.7817   36.6709 H   0  0  0  0  0  0  0  0  0  0  0  0
   41.3841   20.4718   39.6825 H   0  0  0  0  0  0  0  0  0  0  0  0
   42.4981   19.7833   38.5296 H   0  0  0  0  0  0  0  0  0  0  0  0
   39.8646   18.6064   38.1146 H   0  0  0  0  0  0  0  0  0  0  0  0
   40.1954   18.6512   39.8415 H   0  0  0  0  0  0  0  0  0  0  0  0
   42.1497   17.3007   39.6465 H   0  0  0  0  0  0  0  0  0  0  0  0
   42.2745   17.5590   37.9037 H   0  0  0  0  0  0  0  0  0  0  0  0
   40.1824   16.3364   37.4843 H   0  0  0  0  0  0  0  0  0  0  0  0
   39.8768   16.1739   39.2421 H   0  0  0  0  0  0  0  0  0  0  0  0
   40.7853   14.2057   38.3060 H   0  0  0  0  0  0  0  0  0  0  0  0
   42.1429   14.9884   37.7658 H   0  0  0  0  0  0  0  0  0  0  0  0
   36.8904   21.2414   36.5690 H   0  0  0  0  0  0  0  0  0  0  0  0
   36.9333   21.4771   34.2954 H   0  0  0  0  0  0  0  0  0  0  0  0
   36.3001   19.8220   34.2880 H   0  0  0  0  0  0  0  0  0  0  0  0
   38.4562   18.8954   33.8739 H   0  0  0  0  0  0  0  0  0  0  0  0
   38.6051   20.4206   32.9804 H   0  0  0  0  0  0  0  0  0  0  0  0
   40.3364   19.6798   35.0282 H   0  0  0  0  0  0  0  0  0  0  0  0
   39.9666   21.3874   34.6793 H   0  0  0  0  0  0  0  0  0  0  0  0
   36.5650   20.3204   38.3590 H   0  0  0  0  0  0  0  0  0  0  0  0
   37.2304   16.7323   38.1275 H   0  0  0  0  0  0  0  0  0  0  0  0
   36.7310   15.2118   39.9313 H   0  0  0  0  0  0  0  0  0  0  0  0
   34.6142   18.3576   42.0100 H   0  0  0  0  0  0  0  0  0  0  0  0
   35.1176   19.8880   40.1658 H   0  0  0  0  0  0  0  0  0  0  0  0
   35.6193   16.2499   43.2294 H   0  0  0  0  0  0  0  0  0  0  0  0
   35.8655   13.7872   43.1107 H   0  0  0  0  0  0  0  0  0  0  0  0
   37.1877   14.5844   42.2402 H   0  0  0  0  0  0  0  0  0  0  0  0
   35.8435   13.8401   41.3498 H   0  0  0  0  0  0  0  0  0  0  0  0
   33.2763   16.4057   42.3573 H   0  0  0  0  0  0  0  0  0  0  0  0
   33.5611   14.8467   43.1425 H   0  0  0  0  0  0  0  0  0  0  0  0
   33.5498   14.9653   41.3667 H   0  0  0  0  0  0  0  0  0  0  0  0
   41.8552   14.8411   39.4014 H   0  0  0  0  0  0  0  0  0  0  0  0
  1  2  2  0  0  0  0
  1  3  1  0  0  0  0
  1  7  1  0  0  0  0
  3  4  1  0  0  0  0
  3  5  1  0  0  0  0
  3  6  1  0  0  0  0
  7  8  1  0  0  0  0
  7 33  1  0  0  0  0
  8 11  1  0  0  0  0
  8  9  1  0  0  0  0
  8 34  1  6  0  0  0
  9 10  2  0  0  0  0
  9 16  1  0  0  0  0
 11 12  1  0  0  0  0
 11 35  1  0  0  0  0
 11 36  1  0  0  0  0
 12 13  1  0  0  0  0
 12 37  1  0  0  0  0
 12 38  1  0  0  0  0
 13 14  1  0  0  0  0
 13 39  1  0  0  0  0
 13 40  1  0  0  0  0
 14 15  1  0  0  0  0
 14 41  1  0  0  0  0
 14 42  1  0  0  0  0
 15 43  1  0  0  0  0
 15 44  1  0  0  0  0
 15 64  1  0  0  0  0
 16 17  1  0  0  0  0
 16 22  1  0  0  0  0
 17 18  1  0  0  0  0
 17 20  1  0  0  0  0
 17 45  1  1  0  0  0
 18 19  2  0  0  0  0
 18 23  1  0  0  0  0
 20 21  1  0  0  0  0
 20 46  1  0  0  0  0
 20 47  1  0  0  0  0
 21 22  1  0  0  0  0
 21 48  1  0  0  0  0
 21 49  1  0  0  0  0
 22 50  1  0  0  0  0
 22 51  1  0  0  0  0
 23 24  1  0  0  0  0
 23 52  1  0  0  0  0
 24 25  2  0  0  0  0
 24 29  1  0  0  0  0
 25 26  1  0  0  0  0
 25 53  1  0  0  0  0
 26 27  2  0  0  0  0
 26 54  1  0  0  0  0
 27 28  1  0  0  0  0
 27 30  1  0  0  0  0
 28 29  2  0  0  0  0
 28 55  1  0  0  0  0
 29 56  1  0  0  0  0
 30 31  1  0  0  0  0
 30 32  1  0  0  0  0
 30 57  1  0  0  0  0
 31 58  1  0  0  0  0
 31 59  1  0  0  0  0
 31 60  1  0  0  0  0
 32 61  1  0  0  0  0
 32 62  1  0  0  0  0
 32 63  1  0  0  0  0
M  CHG  1  15   1
M  END
$$$$
