0Z3
 OpenBabel04041914283D

 70 71  0  0  1  0  0  0  0  0999 V2000
   42.8503   20.7431   36.2158 C   0  0  0  0  0  0  0  0  0  0  0  0
   43.2126   19.6668   35.7695 O   0  0  0  0  0  0  0  0  0  0  0  0
   43.3254   22.1695   35.5894 C   0  0  0  0  0  0  0  0  0  0  0  0
   44.5819   22.5432   35.9419 F   0  0  0  0  0  0  0  0  0  0  0  0
   43.3239   22.1241   34.2214 F   0  0  0  0  0  0  0  0  0  0  0  0
   42.5129   23.2160   35.9289 F   0  0  0  0  0  0  0  0  0  0  0  0
   41.9970   20.7193   37.3144 N   0  0  0  0  0  0  0  0  0  0  0  0
   41.1643   19.5515   37.7530 C   0  0  2  0  0  0  0  0  0  0  0  0
   39.8970   20.1907   38.3566 C   0  0  0  0  0  0  0  0  0  0  0  0
   39.5532   20.1747   39.5123 O   0  0  0  0  0  0  0  0  0  0  0  0
   41.7203   18.6324   38.8302 C   0  0  0  0  0  0  0  0  0  0  0  0
   41.7387   17.1941   38.3105 C   0  0  0  0  0  0  0  0  0  0  0  0
   42.0575   16.1936   39.4132 C   0  0  0  0  0  0  0  0  0  0  0  0
   42.3783   14.8143   38.8701 C   0  0  0  0  0  0  0  0  0  0  0  0
   43.7478   14.7852   38.3096 N   0  3  0  0  0  0  0  0  0  0  0  0
   39.2222   20.7863   37.3552 N   0  0  0  0  0  0  0  0  0  0  0  0
   38.3249   21.9074   37.5075 C   0  0  2  0  0  0  0  0  0  0  0  0
   36.8871   21.5778   37.0358 C   0  0  0  0  0  0  0  0  0  0  0  0
   36.2076   20.7306   37.5225 O   0  0  0  0  0  0  0  0  0  0  0  0
   39.0850   22.9626   36.7338 C   0  0  0  0  0  0  0  0  0  0  0  0
   39.5137   24.0705   37.6058 C   0  0  0  0  0  0  0  0  0  0  0  0
   40.4214   23.8459   38.6321 C   0  0  0  0  0  0  0  0  0  0  0  0
   38.9721   25.3269   37.3901 C   0  0  0  0  0  0  0  0  0  0  0  0
   40.7937   24.8875   39.4555 C   0  0  0  0  0  0  0  0  0  0  0  0
   39.3431   26.3683   38.2148 C   0  0  0  0  0  0  0  0  0  0  0  0
   40.2531   26.1511   39.2425 C   0  0  0  0  0  0  0  0  0  0  0  0
   36.5194   22.4714   36.0239 N   0  0  0  0  0  0  0  0  0  0  0  0
   35.5159   22.3629   35.0902 C   0  0  0  0  0  0  0  0  0  0  0  0
   35.2102   21.1388   34.5513 C   0  0  0  0  0  0  0  0  0  0  0  0
   34.3611   21.0883   33.4607 C   0  0  0  0  0  0  0  0  0  0  0  0
   33.8040   22.2523   32.9134 C   0  0  0  0  0  0  0  0  0  0  0  0
   34.1037   23.4888   33.5014 C   0  0  0  0  0  0  0  0  0  0  0  0
   34.9749   23.5531   34.5863 C   0  0  0  0  0  0  0  0  0  0  0  0
   32.9158   22.1189   31.6840 C   0  0  0  0  0  0  0  0  0  0  0  0
   33.7305   21.4487   30.5740 C   0  0  0  0  0  0  0  0  0  0  0  0
   32.3390   23.4542   31.2360 C   0  0  0  0  0  0  0  0  0  0  0  0
   41.9430   21.5480   37.8774 H   0  0  0  0  0  0  0  0  0  0  0  0
   40.8797   18.9654   36.8685 H   0  0  0  0  0  0  0  0  0  0  0  0
   41.0878   18.6573   39.7247 H   0  0  0  0  0  0  0  0  0  0  0  0
   42.7205   18.9509   39.1178 H   0  0  0  0  0  0  0  0  0  0  0  0
   42.4892   17.1259   37.5189 H   0  0  0  0  0  0  0  0  0  0  0  0
   40.7596   16.9404   37.8776 H   0  0  0  0  0  0  0  0  0  0  0  0
   41.1832   16.0979   40.0627 H   0  0  0  0  0  0  0  0  0  0  0  0
   42.8969   16.5714   40.0091 H   0  0  0  0  0  0  0  0  0  0  0  0
   41.7041   14.5323   38.0584 H   0  0  0  0  0  0  0  0  0  0  0  0
   42.3577   14.0659   39.6642 H   0  0  0  0  0  0  0  0  0  0  0  0
   43.9730   13.8511   37.9447 H   0  0  0  0  0  0  0  0  0  0  0  0
   43.8476   15.4544   37.5377 H   0  0  0  0  0  0  0  0  0  0  0  0
   39.4798   20.5374   36.4168 H   0  0  0  0  0  0  0  0  0  0  0  0
   38.2036   22.1856   38.5584 H   0  0  0  0  0  0  0  0  0  0  0  0
   38.5552   23.3995   35.8934 H   0  0  0  0  0  0  0  0  0  0  0  0
   39.9672   22.5450   36.2444 H   0  0  0  0  0  0  0  0  0  0  0  0
   40.8228   22.8561   38.8055 H   0  0  0  0  0  0  0  0  0  0  0  0
   38.2640   25.4929   36.5819 H   0  0  0  0  0  0  0  0  0  0  0  0
   41.5022   24.7265   40.2690 H   0  0  0  0  0  0  0  0  0  0  0  0
   38.9232   27.3565   38.0591 H   0  0  0  0  0  0  0  0  0  0  0  0
   40.5400   26.9795   39.8794 H   0  0  0  0  0  0  0  0  0  0  0  0
   36.9707   23.3510   35.9604 H   0  0  0  0  0  0  0  0  0  0  0  0
   35.6545   20.2298   34.9425 H   0  0  0  0  0  0  0  0  0  0  0  0
   34.1420   20.1212   33.0196 H   0  0  0  0  0  0  0  0  0  0  0  0
   33.6840   24.4130   33.1156 H   0  0  0  0  0  0  0  0  0  0  0  0
   35.2004   24.5160   35.0390 H   0  0  0  0  0  0  0  0  0  0  0  0
   32.0637   21.4694   31.9229 H   0  0  0  0  0  0  0  0  0  0  0  0
   33.1368   21.3223   29.6620 H   0  0  0  0  0  0  0  0  0  0  0  0
   34.0618   20.4552   30.8931 H   0  0  0  0  0  0  0  0  0  0  0  0
   34.6224   22.0407   30.3374 H   0  0  0  0  0  0  0  0  0  0  0  0
   31.7505   23.8956   32.0504 H   0  0  0  0  0  0  0  0  0  0  0  0
   31.6827   23.3298   30.3683 H   0  0  0  0  0  0  0  0  0  0  0  0
   33.1435   24.1504   30.9686 H   0  0  0  0  0  0  0  0  0  0  0  0
   44.4438   15.0188   39.0270 H   0  0  0  0  0  0  0  0  0  0  0  0
  1  2  2  0  0  0  0
  1  3  1  0  0  0  0
  1  7  1  0  0  0  0
  3  4  1  0  0  0  0
  3  5  1  0  0  0  0
  3  6  1  0  0  0  0
  7  8  1  0  0  0  0
  7 37  1  0  0  0  0
  8 11  1  0  0  0  0
  8  9  1  0  0  0  0
  8 38  1  6  0  0  0
  9 10  2  0  0  0  0
  9 16  1  0  0  0  0
 11 12  1  0  0  0  0
 11 39  1  0  0  0  0
 11 40  1  0  0  0  0
 12 13  1  0  0  0  0
 12 41  1  0  0  0  0
 12 42  1  0  0  0  0
 13 14  1  0  0  0  0
 13 43  1  0  0  0  0
 13 44  1  0  0  0  0
 14 15  1  0  0  0  0
 14 45  1  0  0  0  0
 14 46  1  0  0  0  0
 15 47  1  0  0  0  0
 15 48  1  0  0  0  0
 15 70  1  0  0  0  0
 16 17  1  0  0  0  0
 16 49  1  0  0  0  0
 17 20  1  0  0  0  0
 17 18  1  0  0  0  0
 17 50  1  1  0  0  0
 18 19  2  0  0  0  0
 18 27  1  0  0  0  0
 20 21  1  0  0  0  0
 20 51  1  0  0  0  0
 20 52  1  0  0  0  0
 21 22  2  0  0  0  0
 21 23  1  0  0  0  0
 22 24  1  0  0  0  0
 22 53  1  0  0  0  0
 23 25  2  0  0  0  0
 23 54  1  0  0  0  0
 24 26  2  0  0  0  0
 24 55  1  0  0  0  0
 25 26  1  0  0  0  0
 25 56  1  0  0  0  0
 26 57  1  0  0  0  0
 27 28  1  0  0  0  0
 27 58  1  0  0  0  0
 28 29  2  0  0  0  0
 28 33  1  0  0  0  0
 29 30  1  0  0  0  0
 29 59  1  0  0  0  0
 30 31  2  0  0  0  0
 30 60  1  0  0  0  0
 31 32  1  0  0  0  0
 31 34  1  0  0  0  0
 32 33  2  0  0  0  0
 32 61  1  0  0  0  0
 33 62  1  0  0  0  0
 34 35  1  0  0  0  0
 34 36  1  0  0  0  0
 34 63  1  0  0  0  0
 35 64  1  0  0  0  0
 35 65  1  0  0  0  0
 35 66  1  0  0  0  0
 36 67  1  0  0  0  0
 36 68  1  0  0  0  0
 36 69  1  0  0  0  0
M  CHG  1  15   1
M  END
$$$$
