0Z4
 OpenBabel04041914283D

 69 69  0  0  1  0  0  0  0  0999 V2000
   43.3207   20.7865   35.7315 C   0  0  0  0  0  0  0  0  0  0  0  0
   42.9022   20.0191   34.8783 O   0  0  0  0  0  0  0  0  0  0  0  0
   44.0089   22.1478   35.4417 C   0  0  0  0  0  0  0  0  0  0  0  0
   45.1897   22.2769   36.0924 F   0  0  0  0  0  0  0  0  0  0  0  0
   44.2287   22.3363   34.1094 F   0  0  0  0  0  0  0  0  0  0  0  0
   43.2271   23.1910   35.8783 F   0  0  0  0  0  0  0  0  0  0  0  0
   43.1036   20.4958   37.0731 N   0  0  0  0  0  0  0  0  0  0  0  0
   42.0770   19.5391   37.5177 C   0  0  2  0  0  0  0  0  0  0  0  0
   41.0853   20.4021   38.3111 C   0  0  0  0  0  0  0  0  0  0  0  0
   40.5677   20.0852   39.3505 O   0  0  0  0  0  0  0  0  0  0  0  0
   42.6684   18.4909   38.4575 C   0  0  0  0  0  0  0  0  0  0  0  0
   42.5045   17.0673   37.9394 C   0  0  0  0  0  0  0  0  0  0  0  0
   41.0739   16.5693   38.1152 C   0  0  0  0  0  0  0  0  0  0  0  0
   41.0211   15.0725   37.8846 C   0  0  0  0  0  0  0  0  0  0  0  0
   39.6399   14.6145   38.0607 N   0  3  0  0  0  0  0  0  0  0  0  0
   40.8090   21.6030   37.6604 N   0  0  0  0  0  0  0  0  0  0  0  0
   39.7299   22.4888   38.0043 C   0  0  2  0  0  0  0  0  0  0  0  0
   38.4938   21.7711   37.4150 C   0  0  0  0  0  0  0  0  0  0  0  0
   38.2541   21.7211   36.2344 O   0  0  0  0  0  0  0  0  0  0  0  0
   39.9626   23.8580   37.3634 C   0  0  0  0  0  0  0  0  0  0  0  0
   41.0164   24.7926   38.0063 C   0  0  0  0  0  0  0  0  0  0  0  0
   40.4070   26.1505   38.3666 C   0  0  0  0  0  0  0  0  0  0  0  0
   41.5032   24.3460   39.3600 C   0  0  0  0  0  0  0  0  0  0  0  0
   37.9483   20.9408   38.4026 N   0  0  0  0  0  0  0  0  0  0  0  0
   37.4969   19.6463   38.1764 C   0  0  0  0  0  0  0  0  0  0  0  0
   36.7551   19.3011   37.0594 C   0  0  0  0  0  0  0  0  0  0  0  0
   36.3919   17.9725   36.8880 C   0  0  0  0  0  0  0  0  0  0  0  0
   36.7986   16.9968   37.8088 C   0  0  0  0  0  0  0  0  0  0  0  0
   37.5061   17.3741   38.9450 C   0  0  0  0  0  0  0  0  0  0  0  0
   37.8385   18.6976   39.1370 C   0  0  0  0  0  0  0  0  0  0  0  0
   36.4634   15.5405   37.6451 C   0  0  0  0  0  0  0  0  0  0  0  0
   36.6738   15.0957   36.2043 C   0  0  0  0  0  0  0  0  0  0  0  0
   35.0805   15.2786   38.2049 C   0  0  0  0  0  0  0  0  0  0  0  0
   43.5138   21.0828   37.7931 H   0  0  0  0  0  0  0  0  0  0  0  0
   41.5820   19.0691   36.6550 H   0  0  0  0  0  0  0  0  0  0  0  0
   42.1935   18.5340   39.4419 H   0  0  0  0  0  0  0  0  0  0  0  0
   43.7304   18.6906   38.6084 H   0  0  0  0  0  0  0  0  0  0  0  0
   43.1833   16.4180   38.5021 H   0  0  0  0  0  0  0  0  0  0  0  0
   42.7855   17.0150   36.8838 H   0  0  0  0  0  0  0  0  0  0  0  0
   40.4148   17.0831   37.4063 H   0  0  0  0  0  0  0  0  0  0  0  0
   40.7201   16.7969   39.1285 H   0  0  0  0  0  0  0  0  0  0  0  0
   41.6254   14.5282   38.6150 H   0  0  0  0  0  0  0  0  0  0  0  0
   41.3207   14.8085   36.8665 H   0  0  0  0  0  0  0  0  0  0  0  0
   39.5439   13.6040   37.9055 H   0  0  0  0  0  0  0  0  0  0  0  0
   39.2881   14.8267   39.0044 H   0  0  0  0  0  0  0  0  0  0  0  0
   41.2968   21.7730   36.7930 H   0  0  0  0  0  0  0  0  0  0  0  0
   39.6252   22.5459   39.0888 H   0  0  0  0  0  0  0  0  0  0  0  0
   39.0017   24.3764   37.3475 H   0  0  0  0  0  0  0  0  0  0  0  0
   40.2556   23.6965   36.3145 H   0  0  0  0  0  0  0  0  0  0  0  0
   41.8548   24.9433   37.3100 H   0  0  0  0  0  0  0  0  0  0  0  0
   41.1795   26.7914   38.8058 H   0  0  0  0  0  0  0  0  0  0  0  0
   39.6480   25.9826   39.1544 H   0  0  0  0  0  0  0  0  0  0  0  0
   39.9495   26.6374   37.5289 H   0  0  0  0  0  0  0  0  0  0  0  0
   42.0071   23.3871   39.3116 H   0  0  0  0  0  0  0  0  0  0  0  0
   40.6323   24.2810   40.0380 H   0  0  0  0  0  0  0  0  0  0  0  0
   42.1856   25.0981   39.7809 H   0  0  0  0  0  0  0  0  0  0  0  0
   38.1913   21.1660   39.3574 H   0  0  0  0  0  0  0  0  0  0  0  0
   36.4438   20.0562   36.3468 H   0  0  0  0  0  0  0  0  0  0  0  0
   35.7950   17.7173   36.0149 H   0  0  0  0  0  0  0  0  0  0  0  0
   37.7991   16.6428   39.6942 H   0  0  0  0  0  0  0  0  0  0  0  0
   38.4389   18.9756   39.9990 H   0  0  0  0  0  0  0  0  0  0  0  0
   37.1533   14.9488   38.2606 H   0  0  0  0  0  0  0  0  0  0  0  0
   36.4689   14.0311   36.0825 H   0  0  0  0  0  0  0  0  0  0  0  0
   37.7109   15.2803   35.8943 H   0  0  0  0  0  0  0  0  0  0  0  0
   36.0357   15.6492   35.5142 H   0  0  0  0  0  0  0  0  0  0  0  0
   35.0323   15.6146   39.2512 H   0  0  0  0  0  0  0  0  0  0  0  0
   34.8477   14.2137   38.1862 H   0  0  0  0  0  0  0  0  0  0  0  0
   34.3217   15.8257   37.6424 H   0  0  0  0  0  0  0  0  0  0  0  0
   39.0305   15.0955   37.3897 H   0  0  0  0  0  0  0  0  0  0  0  0
  1  3  1  0  0  0  0
  1  2  2  0  0  0  0
  1  7  1  0  0  0  0
  3  6  1  0  0  0  0
  3  5  1  0  0  0  0
  3  4  1  0  0  0  0
  7  8  1  0  0  0  0
  7 34  1  0  0  0  0
  8  9  1  0  0  0  0
  8 11  1  0  0  0  0
  8 35  1  6  0  0  0
  9 10  2  0  0  0  0
  9 16  1  0  0  0  0
 11 12  1  0  0  0  0
 11 36  1  0  0  0  0
 11 37  1  0  0  0  0
 12 13  1  0  0  0  0
 12 38  1  0  0  0  0
 12 39  1  0  0  0  0
 13 14  1  0  0  0  0
 13 40  1  0  0  0  0
 13 41  1  0  0  0  0
 14 15  1  0  0  0  0
 14 42  1  0  0  0  0
 14 43  1  0  0  0  0
 15 44  1  0  0  0  0
 15 45  1  0  0  0  0
 15 69  1  0  0  0  0
 16 17  1  0  0  0  0
 16 46  1  0  0  0  0
 17 18  1  0  0  0  0
 17 20  1  0  0  0  0
 17 47  1  1  0  0  0
 18 19  2  0  0  0  0
 18 24  1  0  0  0  0
 20 21  1  0  0  0  0
 20 48  1  0  0  0  0
 20 49  1  0  0  0  0
 21 23  1  0  0  0  0
 21 22  1  0  0  0  0
 21 50  1  0  0  0  0
 22 51  1  0  0  0  0
 22 52  1  0  0  0  0
 22 53  1  0  0  0  0
 23 54  1  0  0  0  0
 23 55  1  0  0  0  0
 23 56  1  0  0  0  0
 24 25  1  0  0  0  0
 24 57  1  0  0  0  0
 25 30  2  0  0  0  0
 25 26  1  0  0  0  0
 26 27  2  0  0  0  0
 26 58  1  0  0  0  0
 27 28  1  0  0  0  0
 27 59  1  0  0  0  0
 28 31  1  0  0  0  0
 28 29  2  0  0  0  0
 29 30  1  0  0  0  0
 29 60  1  0  0  0  0
 30 61  1  0  0  0  0
 31 33  1  0  0  0  0
 31 32  1  0  0  0  0
 31 62  1  0  0  0  0
 32 63  1  0  0  0  0
 32 64  1  0  0  0  0
 32 65  1  0  0  0  0
 33 66  1  0  0  0  0
 33 67  1  0  0  0  0
 33 68  1  0  0  0  0
M  CHG  1  15   1
M  END
$$$$
