0ZI
 OpenBabel04041914413D

 74 76  0  0  1  0  0  0  0  0999 V2000
   17.4848  -17.0805   22.3201 C   0  0  0  0  0  0  0  0  0  0  0  0
   18.2888  -17.0848   21.1958 C   0  0  0  0  0  0  0  0  0  0  0  0
   19.6447  -16.6667   21.2386 C   0  0  0  0  0  0  0  0  0  0  0  0
   20.1890  -16.2252   22.4391 C   0  0  0  0  0  0  0  0  0  0  0  0
   19.4234  -16.2239   23.6037 C   0  0  0  0  0  0  0  0  0  0  0  0
   20.0088  -15.7707   24.8361 C   0  0  0  0  0  0  0  0  0  0  0  0
   19.2055  -15.7780   25.9824 C   0  0  0  0  0  0  0  0  0  0  0  0
   17.8677  -16.2536   25.9227 C   0  0  0  0  0  0  0  0  0  0  0  0
   17.3409  -16.6654   24.7272 C   0  0  0  0  0  0  0  0  0  0  0  0
   18.0437  -16.6590   23.5428 C   0  0  0  0  0  0  0  0  0  0  0  0
   21.3762  -15.3974   24.8902 N   0  0  0  0  0  0  0  0  0  0  0  0
   21.6463  -13.9586   24.9560 C   0  0  0  0  0  0  0  0  0  0  0  0
   22.2177  -16.1990   25.7840 C   0  0  0  0  0  0  0  0  0  0  0  0
   15.7262  -17.6362   22.1226 S   0  0  0  0  0  0  0  0  0  0  0  0
   15.5952  -18.0314   20.7419 O   0  0  0  0  0  0  0  0  0  0  0  0
   15.3045  -18.5194   23.1725 O   0  0  0  0  0  0  0  0  0  0  0  0
   14.7011  -16.3033   22.2970 N   0  0  0  0  0  0  0  0  0  0  0  0
   14.7712  -15.2257   21.3446 C   0  0  2  0  0  0  0  0  0  0  0  0
   15.9248  -14.2804   21.7929 C   0  0  0  0  0  0  0  0  0  0  0  0
   16.0062  -13.9234   22.9764 O   0  0  0  0  0  0  0  0  0  0  0  0
   13.5177  -14.3531   21.2695 C   0  0  0  0  0  0  0  0  0  0  0  0
   12.0040  -14.6093   21.2978 C   0  0  0  0  0  0  0  0  0  0  0  0
   11.4055  -13.1754   21.2076 C   0  0  0  0  0  0  0  0  0  0  0  0
   10.9102  -12.7936   22.5364 N   0  0  0  0  0  0  0  0  0  0  0  0
   11.1764  -11.7209   23.2709 C   0  0  0  0  0  0  0  0  0  0  0  0
   11.9050  -10.7079   22.8175 N   0  0  0  0  0  0  0  0  0  0  0  0
   10.6700  -11.6720   24.5092 N   0  0  0  0  0  0  0  0  0  0  0  0
   16.8016  -13.8041   20.8313 N   0  0  0  0  0  0  0  0  0  0  0  0
   17.8108  -12.8444   21.3110 C   0  0  0  0  0  0  0  0  0  0  0  0
   19.0989  -12.8880   20.5345 C   0  0  0  0  0  0  0  0  0  0  0  0
   18.8548  -12.9350   19.0211 C   0  0  2  0  0  0  0  0  0  0  0  0
   17.8428  -14.0109   18.5903 C   0  0  0  0  0  0  0  0  0  0  0  0
   16.5525  -13.8975   19.3799 C   0  0  0  0  0  0  0  0  0  0  0  0
   20.2322  -13.1858   18.4346 C   0  0  0  0  0  0  0  0  0  0  0  0
   20.3174  -13.0392   16.9387 C   0  0  0  0  0  0  0  0  0  0  0  0
   17.9163  -17.4150   20.2195 H   0  0  0  0  0  0  0  0  0  0  0  0
   20.2657  -16.6701   20.3393 H   0  0  0  0  0  0  0  0  0  0  0  0
   21.2364  -15.8956   22.4605 H   0  0  0  0  0  0  0  0  0  0  0  0
   19.5963  -15.4340   26.9171 H   0  0  0  0  0  0  0  0  0  0  0  0
   17.2751  -16.2903   26.8362 H   0  0  0  0  0  0  0  0  0  0  0  0
   16.2796  -16.9957   24.7639 H   0  0  0  0  0  0  0  0  0  0  0  0
   22.7332  -13.8049   24.9653 H   0  0  0  0  0  0  0  0  0  0  0  0
   21.2416  -13.4929   25.8604 H   0  0  0  0  0  0  0  0  0  0  0  0
   21.2654  -13.4270   24.0767 H   0  0  0  0  0  0  0  0  0  0  0  0
   21.9772  -17.2668   25.7328 H   0  0  0  0  0  0  0  0  0  0  0  0
   22.1564  -15.8689   26.8278 H   0  0  0  0  0  0  0  0  0  0  0  0
   23.2663  -16.0987   25.4738 H   0  0  0  0  0  0  0  0  0  0  0  0
   14.0836  -16.2525   23.1088 H   0  0  0  0  0  0  0  0  0  0  0  0
   14.9736  -15.6618   20.3783 H   0  0  0  0  0  0  0  0  0  0  0  0
   13.6449  -13.8598   20.2993 H   0  0  0  0  0  0  0  0  0  0  0  0
   13.6380  -13.6289   22.0804 H   0  0  0  0  0  0  0  0  0  0  0  0
   11.6447  -15.0714   22.2278 H   0  0  0  0  0  0  0  0  0  0  0  0
   11.6160  -15.1832   20.4473 H   0  0  0  0  0  0  0  0  0  0  0  0
   10.5739  -13.1281   20.5033 H   0  0  0  0  0  0  0  0  0  0  0  0
   12.1678  -12.4579   20.8602 H   0  0  0  0  0  0  0  0  0  0  0  0
   10.3418  -13.5034   22.9919 H   0  0  0  0  0  0  0  0  0  0  0  0
   12.0736   -9.8739   23.3631 H   0  0  0  0  0  0  0  0  0  0  0  0
   10.1453  -12.4491   24.8883 H   0  0  0  0  0  0  0  0  0  0  0  0
   10.8205  -10.8824   25.1190 H   0  0  0  0  0  0  0  0  0  0  0  0
   18.0543  -13.0107   22.3694 H   0  0  0  0  0  0  0  0  0  0  0  0
   17.3840  -11.8384   21.2474 H   0  0  0  0  0  0  0  0  0  0  0  0
   19.6992  -13.7471   20.8612 H   0  0  0  0  0  0  0  0  0  0  0  0
   19.7188  -12.0129   20.7947 H   0  0  0  0  0  0  0  0  0  0  0  0
   18.4740  -11.9580   18.6933 H   0  0  0  0  0  0  0  0  0  0  0  0
   18.2496  -15.0202   18.7332 H   0  0  0  0  0  0  0  0  0  0  0  0
   17.6145  -13.9393   17.5159 H   0  0  0  0  0  0  0  0  0  0  0  0
   15.9662  -13.0244   19.0691 H   0  0  0  0  0  0  0  0  0  0  0  0
   15.9260  -14.7505   19.1027 H   0  0  0  0  0  0  0  0  0  0  0  0
   20.5429  -14.1954   18.7288 H   0  0  0  0  0  0  0  0  0  0  0  0
   20.9296  -12.4773   18.8977 H   0  0  0  0  0  0  0  0  0  0  0  0
   21.3464  -13.2382   16.6267 H   0  0  0  0  0  0  0  0  0  0  0  0
   20.0512  -12.0253   16.6284 H   0  0  0  0  0  0  0  0  0  0  0  0
   19.6621  -13.7490   16.4300 H   0  0  0  0  0  0  0  0  0  0  0  0
   12.2760  -10.7292   21.8760 H   0  0  0  0  0  0  0  0  0  0  0  0
  1 14  1  0  0  0  0
  1 10  2  0  0  0  0
  1  2  1  0  0  0  0
  2  3  2  0  0  0  0
  2 36  1  0  0  0  0
  3  4  1  0  0  0  0
  3 37  1  0  0  0  0
  4  5  2  0  0  0  0
  4 38  1  0  0  0  0
  5 10  1  0  0  0  0
  5  6  1  0  0  0  0
  6 11  1  0  0  0  0
  6  7  2  0  0  0  0
  7  8  1  0  0  0  0
  7 39  1  0  0  0  0
  8  9  2  0  0  0  0
  8 40  1  0  0  0  0
  9 10  1  0  0  0  0
  9 41  1  0  0  0  0
 11 13  1  0  0  0  0
 11 12  1  0  0  0  0
 12 42  1  0  0  0  0
 12 43  1  0  0  0  0
 12 44  1  0  0  0  0
 13 45  1  0  0  0  0
 13 46  1  0  0  0  0
 13 47  1  0  0  0  0
 14 16  2  0  0  0  0
 14 15  2  0  0  0  0
 14 17  1  0  0  0  0
 17 18  1  0  0  0  0
 17 48  1  0  0  0  0
 18 19  1  0  0  0  0
 18 21  1  0  0  0  0
 18 49  1  6  0  0  0
 19 20  2  0  0  0  0
 19 28  1  0  0  0  0
 21 22  1  0  0  0  0
 21 50  1  0  0  0  0
 21 51  1  0  0  0  0
 22 23  1  0  0  0  0
 22 52  1  0  0  0  0
 22 53  1  0  0  0  0
 23 24  1  0  0  0  0
 23 54  1  0  0  0  0
 23 55  1  0  0  0  0
 24 25  1  0  0  0  0
 24 56  1  0  0  0  0
 25 26  2  0  0  0  0
 25 27  1  0  0  0  0
 26 57  1  0  0  0  0
 26 74  1  0  0  0  0
 27 58  1  0  0  0  0
 27 59  1  0  0  0  0
 28 33  1  0  0  0  0
 28 29  1  0  0  0  0
 29 30  1  0  0  0  0
 29 60  1  0  0  0  0
 29 61  1  0  0  0  0
 30 31  1  0  0  0  0
 30 62  1  0  0  0  0
 30 63  1  0  0  0  0
 31 34  1  0  0  0  0
 31 32  1  0  0  0  0
 31 64  1  6  0  0  0
 32 33  1  0  0  0  0
 32 65  1  0  0  0  0
 32 66  1  0  0  0  0
 33 67  1  0  0  0  0
 33 68  1  0  0  0  0
 34 35  1  0  0  0  0
 34 69  1  0  0  0  0
 34 70  1  0  0  0  0
 35 71  1  0  0  0  0
 35 72  1  0  0  0  0
 35 73  1  0  0  0  0
M  END
$$$$
