0ZN
 OpenBabel04041916593D

 67 69  0  0  1  0  0  0  0  0999 V2000
   51.6715   18.0468   -5.8138 C   0  0  1  0  0  0  0  0  0  0  0  0
   50.2985   18.0724   -6.5052 C   0  0  0  0  0  0  0  0  0  0  0  0
   49.8391   16.6254   -6.6995 C   0  0  0  0  0  0  0  0  0  0  0  0
   48.5421   16.4221   -7.4366 C   0  0  0  0  0  0  0  0  0  0  0  0
   48.5077   16.3882   -8.8382 C   0  0  0  0  0  0  0  0  0  0  0  0
   47.3688   16.1457   -6.7257 C   0  0  0  0  0  0  0  0  0  0  0  0
   47.3219   16.0796   -9.5110 C   0  0  0  0  0  0  0  0  0  0  0  0
   46.1835   15.8444   -7.3984 C   0  0  0  0  0  0  0  0  0  0  0  0
   46.1582   15.8141   -8.7911 C   0  0  0  0  0  0  0  0  0  0  0  0
   52.5400   19.1342   -6.5000 C   0  0  0  0  0  0  0  0  0  0  0  0
   53.3916   18.7306   -7.3242 O   0  0  0  0  0  0  0  0  0  0  0  0
   52.3076   20.2893   -6.0346 O   0  0  0  0  0  0  0  0  0  0  0  0
   51.5001   18.2028   -4.2801 N   0  3  0  0  0  0  0  0  0  0  0  0
   52.8452   18.1241   -3.5759 C   0  0  2  0  0  0  0  0  0  0  0  0
   53.6847   16.8897   -3.9241 C   0  0  0  0  0  0  0  0  0  0  0  0
   54.9102   16.9356   -3.9936 O   0  0  0  0  0  0  0  0  0  0  0  0
   52.6088   18.1197   -2.0550 C   0  0  0  0  0  0  0  0  0  0  0  0
   53.9424   18.2506   -1.2882 C   0  0  0  0  0  0  0  0  0  0  0  0
   54.6621   19.5439   -1.6687 C   0  0  0  0  0  0  0  0  0  0  0  0
   53.6917   18.1851    0.2131 C   0  0  0  0  0  0  0  0  0  0  0  0
   52.9716   15.7278   -3.9906 N   0  0  0  0  0  0  0  0  0  0  0  0
   53.5941   14.4398   -4.3333 C   0  0  2  0  0  0  0  0  0  0  0  0
   52.6595   13.5525   -5.2132 C   0  0  0  0  0  0  0  0  0  0  0  0
   51.5301   14.0943   -5.4564 O   0  0  0  0  0  0  0  0  0  0  0  0
   54.0693   13.7421   -3.0551 C   0  0  0  0  0  0  0  0  0  0  0  0
   52.9432   13.2728   -2.1783 C   0  0  1  0  0  0  0  0  0  0  0  0
   51.8006   13.9628   -1.7877 C   0  0  0  0  0  0  0  0  0  0  0  0
   52.8091   11.9718   -1.6157 C   0  0  1  0  0  0  0  0  0  0  0  0
   50.8969   13.0650   -1.3155 N   0  3  0  0  0  0  0  0  0  0  0  0
   51.4942   11.8278   -1.2032 C   0  0  1  0  0  0  0  0  0  0  0  0
   53.6879   10.8820   -1.4834 C   0  0  0  0  0  0  0  0  0  0  0  0
   50.9503   10.6125   -0.7902 C   0  0  0  0  0  0  0  0  0  0  0  0
   53.1890    9.6768   -0.9572 C   0  0  0  0  0  0  0  0  0  0  0  0
   51.8443    9.5391   -0.6665 C   0  0  0  0  0  0  0  0  0  0  0  0
   53.1360   12.4514   -5.5992 O   0  0  0  0  0  0  0  0  0  0  0  0
   52.1455   17.0759   -5.9563 H   0  0  0  0  0  0  0  0  0  0  0  0
   50.3790   18.5563   -7.4872 H   0  0  0  0  0  0  0  0  0  0  0  0
   49.5617   18.6564   -5.9370 H   0  0  0  0  0  0  0  0  0  0  0  0
   49.7633   16.1545   -5.7123 H   0  0  0  0  0  0  0  0  0  0  0  0
   50.6203   16.0776   -7.2416 H   0  0  0  0  0  0  0  0  0  0  0  0
   49.4174   16.5558   -9.4124 H   0  0  0  0  0  0  0  0  0  0  0  0
   47.3864   16.1167   -5.6397 H   0  0  0  0  0  0  0  0  0  0  0  0
   47.3141   16.0225  -10.5963 H   0  0  0  0  0  0  0  0  0  0  0  0
   45.2877   15.6072   -6.8326 H   0  0  0  0  0  0  0  0  0  0  0  0
   45.2387   15.5663   -9.3134 H   0  0  0  0  0  0  0  0  0  0  0  0
   50.8397   17.5160   -3.9187 H   0  0  0  0  0  0  0  0  0  0  0  0
   53.3769   19.0173   -3.9005 H   0  0  0  0  0  0  0  0  0  0  0  0
   52.1132   17.1917   -1.7446 H   0  0  0  0  0  0  0  0  0  0  0  0
   51.9371   18.9351   -1.7638 H   0  0  0  0  0  0  0  0  0  0  0  0
   54.5940   17.4033   -1.5328 H   0  0  0  0  0  0  0  0  0  0  0  0
   55.6156   19.6371   -1.1430 H   0  0  0  0  0  0  0  0  0  0  0  0
   54.0378   20.4153   -1.4378 H   0  0  0  0  0  0  0  0  0  0  0  0
   54.9037   19.5819   -2.7370 H   0  0  0  0  0  0  0  0  0  0  0  0
   53.2059   17.2407    0.4806 H   0  0  0  0  0  0  0  0  0  0  0  0
   53.0460   19.0072    0.5386 H   0  0  0  0  0  0  0  0  0  0  0  0
   54.6352   18.2441    0.7627 H   0  0  0  0  0  0  0  0  0  0  0  0
   51.9606   15.6660   -4.0209 H   0  0  0  0  0  0  0  0  0  0  0  0
   54.4684   14.6638   -4.9567 H   0  0  0  0  0  0  0  0  0  0  0  0
   54.7058   14.4168   -2.4695 H   0  0  0  0  0  0  0  0  0  0  0  0
   54.6963   12.8884   -3.3408 H   0  0  0  0  0  0  0  0  0  0  0  0
   51.5275   14.9962   -1.9156 H   0  0  0  0  0  0  0  0  0  0  0  0
   49.9332   13.2432   -1.0785 H   0  0  0  0  0  0  0  0  0  0  0  0
   54.7338   10.9850   -1.7527 H   0  0  0  0  0  0  0  0  0  0  0  0
   49.8990   10.4921   -0.5950 H   0  0  0  0  0  0  0  0  0  0  0  0
   53.8823    8.8544   -0.8139 H   0  0  0  0  0  0  0  0  0  0  0  0
   51.4730    8.5774   -0.3213 H   0  0  0  0  0  0  0  0  0  0  0  0
   51.1500   19.1625   -4.1453 H   0  0  0  0  0  0  0  0  0  0  0  0
  1  2  1  0  0  0  0
  1 10  1  0  0  0  0
  1 13  1  0  0  0  0
  1 36  1  6  0  0  0
  2  3  1  0  0  0  0
  2 37  1  0  0  0  0
  2 38  1  0  0  0  0
  3  4  1  0  0  0  0
  3 39  1  0  0  0  0
  3 40  1  0  0  0  0
  4  5  2  0  0  0  0
  4  6  1  0  0  0  0
  5  7  1  0  0  0  0
  5 41  1  0  0  0  0
  6  8  2  0  0  0  0
  6 42  1  0  0  0  0
  7  9  2  0  0  0  0
  7 43  1  0  0  0  0
  8  9  1  0  0  0  0
  8 44  1  0  0  0  0
  9 45  1  0  0  0  0
 10 11  2  0  0  0  0
 10 12  1  0  0  0  0
 13 14  1  0  0  0  0
 13 46  1  0  0  0  0
 13 67  1  0  0  0  0
 14 17  1  0  0  0  0
 14 15  1  0  0  0  0
 14 47  1  6  0  0  0
 15 16  2  0  0  0  0
 15 21  1  0  0  0  0
 17 18  1  0  0  0  0
 17 48  1  0  0  0  0
 17 49  1  0  0  0  0
 18 19  1  0  0  0  0
 18 20  1  0  0  0  0
 18 50  1  0  0  0  0
 19 51  1  0  0  0  0
 19 52  1  0  0  0  0
 19 53  1  0  0  0  0
 20 54  1  0  0  0  0
 20 55  1  0  0  0  0
 20 56  1  0  0  0  0
 21 22  1  0  0  0  0
 21 57  1  0  0  0  0
 22 25  1  0  0  0  0
 22 23  1  0  0  0  0
 22 58  1  6  0  0  0
 23 24  2  0  0  0  0
 23 35  1  0  0  0  0
 25 59  1  0  0  0  0
 25 60  1  0  0  0  0
 26 25  1  6  0  0  0
 26 27  1  0  0  0  0
 26 28  1  0  0  0  0
 27 29  1  0  0  0  0
 27 61  1  0  0  0  0
 28 31  1  6  0  0  0
 28 30  1  0  0  0  0
 29 30  1  0  0  0  0
 29 62  1  0  0  0  0
 30 32  1  6  0  0  0
 31 33  1  0  0  0  0
 31 63  1  0  0  0  0
 32 34  1  0  0  0  0
 32 64  1  0  0  0  0
 33 34  1  0  0  0  0
 33 65  1  0  0  0  0
 34 66  1  0  0  0  0
M  CHG  2  13   1  29   1
M  END
$$$$
