0ZR
 OpenBabel04041915063D

102104  0  0  1  0  0  0  0  0999 V2000
   13.9467   20.2945    5.3225 O   0  0  0  0  0  0  0  0  0  0  0  0
   15.1636   20.4419    5.2947 C   0  0  0  0  0  0  0  0  0  0  0  0
   16.0523   19.7950    4.4935 O   0  0  0  0  0  0  0  0  0  0  0  0
   15.6628   18.8841    3.4054 C   0  0  0  0  0  0  0  0  0  0  0  0
   16.9538   18.3338    2.7537 C   0  0  0  0  0  0  0  0  0  0  0  0
   14.8816   19.6577    2.3401 C   0  0  0  0  0  0  0  0  0  0  0  0
   14.8394   17.7117    3.9285 C   0  0  0  0  0  0  0  0  0  0  0  0
   15.7807   21.4473    6.0043 N   0  0  0  0  0  0  0  0  0  0  0  0
   15.0326   22.3584    6.8883 C   0  0  2  0  0  0  0  0  0  0  0  0
   14.6943   23.6803    6.1918 C   0  0  1  0  0  0  0  0  0  0  0  0
   15.9016   24.3640    5.8404 O   0  0  0  0  0  0  0  0  0  0  0  0
   15.8018   22.6923    8.1644 C   0  0  0  0  0  0  0  0  0  0  0  0
   16.2431   21.4740    8.9054 C   0  0  0  0  0  0  0  0  0  0  0  0
   17.5043   20.9293    8.6671 C   0  0  0  0  0  0  0  0  0  0  0  0
   15.3810   20.8494    9.8055 C   0  0  0  0  0  0  0  0  0  0  0  0
   17.9000   19.7669    9.3139 C   0  0  0  0  0  0  0  0  0  0  0  0
   15.7755   19.6864   10.4540 C   0  0  0  0  0  0  0  0  0  0  0  0
   17.0349   19.1438   10.2074 C   0  0  0  0  0  0  0  0  0  0  0  0
   13.8882   23.4093    4.9426 C   0  0  0  0  0  0  0  0  0  0  0  0
   13.4492   24.7111    4.3513 N   0  3  0  0  0  0  0  0  0  0  0  0
   11.9957   24.7597    3.9861 C   0  0  2  0  0  0  0  0  0  0  0  0
   11.0822   24.6770    5.2089 C   0  0  0  0  0  0  0  0  0  0  0  0
   11.1160   23.7831    6.0146 O   0  0  0  0  0  0  0  0  0  0  0  0
   11.6449   23.6475    3.0153 C   0  0  0  0  0  0  0  0  0  0  0  0
   10.1979   23.6817    2.6192 C   0  0  0  0  0  0  0  0  0  0  0  0
    9.3744   22.5804    2.8615 C   0  0  0  0  0  0  0  0  0  0  0  0
    9.6546   24.8215    2.0251 C   0  0  0  0  0  0  0  0  0  0  0  0
    8.0273   22.6144    2.5048 C   0  0  0  0  0  0  0  0  0  0  0  0
    8.3091   24.8607    1.6709 C   0  0  0  0  0  0  0  0  0  0  0  0
    7.4990   23.7516    1.8955 C   0  0  0  0  0  0  0  0  0  0  0  0
   10.2359   25.7336    5.2860 N   0  0  0  0  0  0  0  0  0  0  0  0
    9.2448   25.8280    6.3502 C   0  0  2  0  0  0  0  0  0  0  0  0
    8.1941   26.8016    5.8241 C   0  0  0  0  0  0  0  0  0  0  0  0
    8.4800   27.7499    5.1198 O   0  0  0  0  0  0  0  0  0  0  0  0
    9.9151   26.3297    7.6268 C   0  0  0  0  0  0  0  0  0  0  0  0
    8.9703   26.5539    8.7955 C   0  0  0  0  0  0  0  0  0  0  0  0
    8.2624   27.8980    8.6995 C   0  0  0  0  0  0  0  0  0  0  0  0
    8.6737   28.8361    8.0603 O   0  0  0  0  0  0  0  0  0  0  0  0
    7.0988   27.9759    9.4034 N   0  0  0  0  0  0  0  0  0  0  0  0
    6.9245   26.5180    6.2233 N   0  0  0  0  0  0  0  0  0  0  0  0
    5.8249   27.3794    5.8229 C   0  0  2  0  0  0  0  0  0  0  0  0
    4.7857   27.3694    6.9383 C   0  0  0  0  0  0  0  0  0  0  0  0
    4.6294   26.4200    7.6945 O   0  0  0  0  0  0  0  0  0  0  0  0
    5.2297   26.9570    4.4849 C   0  0  0  0  0  0  0  0  0  0  0  0
    4.5821   25.5911    4.4810 C   0  0  0  0  0  0  0  0  0  0  0  0
    3.2270   25.4469    4.7891 C   0  0  0  0  0  0  0  0  0  0  0  0
    5.3250   24.4506    4.1812 C   0  0  0  0  0  0  0  0  0  0  0  0
    2.6228   24.1882    4.7785 C   0  0  0  0  0  0  0  0  0  0  0  0
    4.7268   23.1894    4.1607 C   0  0  0  0  0  0  0  0  0  0  0  0
    3.3734   23.0588    4.4604 C   0  0  0  0  0  0  0  0  0  0  0  0
    4.0133   28.4843    7.0284 N   0  0  0  0  0  0  0  0  0  0  0  0
   16.7379   17.6547    1.9117 H   0  0  0  0  0  0  0  0  0  0  0  0
   17.5478   17.7801    3.4923 H   0  0  0  0  0  0  0  0  0  0  0  0
   17.5782   19.1548    2.3736 H   0  0  0  0  0  0  0  0  0  0  0  0
   14.5873   19.0163    1.4974 H   0  0  0  0  0  0  0  0  0  0  0  0
   15.4839   20.4883    1.9503 H   0  0  0  0  0  0  0  0  0  0  0  0
   13.9753   20.0792    2.7837 H   0  0  0  0  0  0  0  0  0  0  0  0
   14.5413   17.0246    3.1244 H   0  0  0  0  0  0  0  0  0  0  0  0
   13.9325   18.0833    4.4096 H   0  0  0  0  0  0  0  0  0  0  0  0
   15.4129   17.1506    4.6734 H   0  0  0  0  0  0  0  0  0  0  0  0
   16.7869   21.5299    5.9446 H   0  0  0  0  0  0  0  0  0  0  0  0
   14.0881   21.8744    7.1532 H   0  0  0  0  0  0  0  0  0  0  0  0
   14.1243   24.3267    6.8760 H   0  0  0  0  0  0  0  0  0  0  0  0
   15.7047   25.2079    5.4158 H   0  0  0  0  0  0  0  0  0  0  0  0
   15.1563   23.2892    8.8227 H   0  0  0  0  0  0  0  0  0  0  0  0
   16.6866   23.2910    7.9210 H   0  0  0  0  0  0  0  0  0  0  0  0
   18.1798   21.4129    7.9676 H   0  0  0  0  0  0  0  0  0  0  0  0
   14.3994   21.2695   10.0022 H   0  0  0  0  0  0  0  0  0  0  0  0
   18.8813   19.3478    9.1217 H   0  0  0  0  0  0  0  0  0  0  0  0
   15.1015   19.2008   11.1492 H   0  0  0  0  0  0  0  0  0  0  0  0
   17.3421   18.2345   10.7157 H   0  0  0  0  0  0  0  0  0  0  0  0
   13.0071   22.8264    5.1752 H   0  0  0  0  0  0  0  0  0  0  0  0
   14.4848   22.9241    4.1698 H   0  0  0  0  0  0  0  0  0  0  0  0
   13.6311   25.4628    5.0284 H   0  0  0  0  0  0  0  0  0  0  0  0
   11.8805   25.7370    3.5082 H   0  0  0  0  0  0  0  0  0  0  0  0
   11.8635   22.6769    3.4727 H   0  0  0  0  0  0  0  0  0  0  0  0
   12.2637   23.7527    2.1194 H   0  0  0  0  0  0  0  0  0  0  0  0
    9.7783   21.6845    3.3270 H   0  0  0  0  0  0  0  0  0  0  0  0
   10.2764   25.6881    1.8315 H   0  0  0  0  0  0  0  0  0  0  0  0
    7.3891   21.7558    2.6954 H   0  0  0  0  0  0  0  0  0  0  0  0
    7.8927   25.7503    1.2071 H   0  0  0  0  0  0  0  0  0  0  0  0
    6.4431   23.7865    1.6274 H   0  0  0  0  0  0  0  0  0  0  0  0
   10.2521   26.4752    4.5889 H   0  0  0  0  0  0  0  0  0  0  0  0
    8.8029   24.8370    6.5115 H   0  0  0  0  0  0  0  0  0  0  0  0
   10.4424   27.2637    7.3988 H   0  0  0  0  0  0  0  0  0  0  0  0
   10.6650   25.5853    7.9294 H   0  0  0  0  0  0  0  0  0  0  0  0
    9.5580   26.5551    9.7230 H   0  0  0  0  0  0  0  0  0  0  0  0
    8.2386   25.7419    8.8406 H   0  0  0  0  0  0  0  0  0  0  0  0
    6.5612   28.8369    9.3752 H   0  0  0  0  0  0  0  0  0  0  0  0
    6.7500   27.1975    9.9436 H   0  0  0  0  0  0  0  0  0  0  0  0
    6.7141   25.6812    6.7570 H   0  0  0  0  0  0  0  0  0  0  0  0
    6.2084   28.4053    5.7342 H   0  0  0  0  0  0  0  0  0  0  0  0
    6.0305   26.9573    3.7324 H   0  0  0  0  0  0  0  0  0  0  0  0
    4.4808   27.6944    4.1753 H   0  0  0  0  0  0  0  0  0  0  0  0
    2.6335   26.3213    5.0407 H   0  0  0  0  0  0  0  0  0  0  0  0
    6.3784   24.5507    3.9521 H   0  0  0  0  0  0  0  0  0  0  0  0
    1.5666   24.0909    5.0166 H   0  0  0  0  0  0  0  0  0  0  0  0
    5.3140   22.3116    3.9124 H   0  0  0  0  0  0  0  0  0  0  0  0
    2.9028   22.0795    4.4492 H   0  0  0  0  0  0  0  0  0  0  0  0
    3.2990   28.5323    7.7457 H   0  0  0  0  0  0  0  0  0  0  0  0
    4.1611   29.2748    6.4142 H   0  0  0  0  0  0  0  0  0  0  0  0
   14.0024   24.8912    3.5039 H   0  0  0  0  0  0  0  0  0  0  0  0
  1  2  2  0  0  0  0
  2  3  1  0  0  0  0
  2  8  1  0  0  0  0
  3  4  1  0  0  0  0
  4  5  1  0  0  0  0
  4  6  1  0  0  0  0
  4  7  1  0  0  0  0
  5 52  1  0  0  0  0
  5 53  1  0  0  0  0
  5 54  1  0  0  0  0
  6 55  1  0  0  0  0
  6 56  1  0  0  0  0
  6 57  1  0  0  0  0
  7 58  1  0  0  0  0
  7 59  1  0  0  0  0
  7 60  1  0  0  0  0
  8  9  1  0  0  0  0
  8 61  1  0  0  0  0
  9 10  1  0  0  0  0
  9 12  1  0  0  0  0
  9 62  1  1  0  0  0
 10 11  1  0  0  0  0
 10 19  1  0  0  0  0
 10 63  1  1  0  0  0
 11 64  1  0  0  0  0
 12 13  1  0  0  0  0
 12 65  1  0  0  0  0
 12 66  1  0  0  0  0
 13 14  2  0  0  0  0
 13 15  1  0  0  0  0
 14 16  1  0  0  0  0
 14 67  1  0  0  0  0
 15 17  2  0  0  0  0
 15 68  1  0  0  0  0
 16 18  2  0  0  0  0
 16 69  1  0  0  0  0
 17 18  1  0  0  0  0
 17 70  1  0  0  0  0
 18 71  1  0  0  0  0
 19 20  1  0  0  0  0
 19 72  1  0  0  0  0
 19 73  1  0  0  0  0
 20 21  1  0  0  0  0
 20 74  1  0  0  0  0
 20102  1  0  0  0  0
 21 22  1  0  0  0  0
 21 24  1  0  0  0  0
 21 75  1  6  0  0  0
 22 23  2  0  0  0  0
 22 31  1  0  0  0  0
 24 25  1  0  0  0  0
 24 76  1  0  0  0  0
 24 77  1  0  0  0  0
 25 26  2  0  0  0  0
 25 27  1  0  0  0  0
 26 28  1  0  0  0  0
 26 78  1  0  0  0  0
 27 29  2  0  0  0  0
 27 79  1  0  0  0  0
 28 30  2  0  0  0  0
 28 80  1  0  0  0  0
 29 30  1  0  0  0  0
 29 81  1  0  0  0  0
 30 82  1  0  0  0  0
 31 32  1  0  0  0  0
 31 83  1  0  0  0  0
 32 33  1  0  0  0  0
 32 35  1  0  0  0  0
 32 84  1  1  0  0  0
 33 34  2  0  0  0  0
 33 40  1  0  0  0  0
 35 36  1  0  0  0  0
 35 85  1  0  0  0  0
 35 86  1  0  0  0  0
 36 37  1  0  0  0  0
 36 87  1  0  0  0  0
 36 88  1  0  0  0  0
 37 38  2  0  0  0  0
 37 39  1  0  0  0  0
 39 89  1  0  0  0  0
 39 90  1  0  0  0  0
 40 41  1  0  0  0  0
 40 91  1  0  0  0  0
 41 42  1  0  0  0  0
 41 44  1  0  0  0  0
 41 92  1  6  0  0  0
 42 43  2  0  0  0  0
 42 51  1  0  0  0  0
 44 45  1  0  0  0  0
 44 93  1  0  0  0  0
 44 94  1  0  0  0  0
 45 46  2  0  0  0  0
 45 47  1  0  0  0  0
 46 48  1  0  0  0  0
 46 95  1  0  0  0  0
 47 49  2  0  0  0  0
 47 96  1  0  0  0  0
 48 50  2  0  0  0  0
 48 97  1  0  0  0  0
 49 50  1  0  0  0  0
 49 98  1  0  0  0  0
 50 99  1  0  0  0  0
 51100  1  0  0  0  0
 51101  1  0  0  0  0
M  CHG  1  20   1
M  END
$$$$
