0ZS
 OpenBabel04041918013D

100102  0  0  1  0  0  0  0  0999 V2000
  -21.8649   40.1084   30.3248 O   0  0  0  0  0  0  0  0  0  0  0  0
  -21.0236   39.3821   30.8163 C   0  0  0  0  0  0  0  0  0  0  0  0
  -20.9941   38.8845   32.0834 O   0  0  0  0  0  0  0  0  0  0  0  0
  -22.1644   39.0423   32.9185 C   0  0  0  0  0  0  0  0  0  0  0  0
  -21.8442   38.3887   34.2729 C   0  0  0  0  0  0  0  0  0  0  0  0
  -23.3362   38.2916   32.2780 C   0  0  0  0  0  0  0  0  0  0  0  0
  -22.4685   40.5221   33.1350 C   0  0  0  0  0  0  0  0  0  0  0  0
  -20.0347   38.7786   30.1159 N   0  0  0  0  0  0  0  0  0  0  0  0
  -19.7902   39.0763   28.7071 C   0  0  2  0  0  0  0  0  0  0  0  0
  -20.1057   37.8916   27.7672 C   0  0  2  0  0  0  0  0  0  0  0  0
  -20.1951   38.4248   26.4475 O   0  0  0  0  0  0  0  0  0  0  0  0
  -18.3341   39.5363   28.5223 C   0  0  0  0  0  0  0  0  0  0  0  0
  -18.0939   40.9871   28.8458 C   0  0  0  0  0  0  0  0  0  0  0  0
  -19.0971   41.9588   28.7129 C   0  0  0  0  0  0  0  0  0  0  0  0
  -16.8084   41.4039   29.2233 C   0  0  0  0  0  0  0  0  0  0  0  0
  -18.8552   43.2905   28.9811 C   0  0  0  0  0  0  0  0  0  0  0  0
  -16.5567   42.7468   29.4793 C   0  0  0  0  0  0  0  0  0  0  0  0
  -17.5714   43.6986   29.3679 C   0  0  0  0  0  0  0  0  0  0  0  0
  -21.4693   37.3218   28.1731 C   0  0  0  0  0  0  0  0  0  0  0  0
  -21.8918   36.2283   27.2483 N   0  3  0  0  0  0  0  0  0  0  0  0
  -23.3549   36.1994   26.8795 C   0  0  2  0  0  0  0  0  0  0  0  0
  -23.6601   37.1806   25.7424 C   0  0  0  0  0  0  0  0  0  0  0  0
  -23.8399   38.3709   25.9719 O   0  0  0  0  0  0  0  0  0  0  0  0
  -24.2446   36.5292   28.0847 C   0  0  0  0  0  0  0  0  0  0  0  0
  -25.6923   36.4977   27.6838 C   0  0  0  0  0  0  0  0  0  0  0  0
  -26.1873   35.4212   26.9344 C   0  0  0  0  0  0  0  0  0  0  0  0
  -26.5302   37.5803   27.9789 C   0  0  0  0  0  0  0  0  0  0  0  0
  -27.4959   35.4195   26.4938 C   0  0  0  0  0  0  0  0  0  0  0  0
  -27.8520   37.5638   27.5517 C   0  0  0  0  0  0  0  0  0  0  0  0
  -28.3379   36.4859   26.8124 C   0  0  0  0  0  0  0  0  0  0  0  0
  -23.5790   36.6496   24.4895 N   0  0  0  0  0  0  0  0  0  0  0  0
  -23.8418   37.5195   23.3313 C   0  0  2  0  0  0  0  0  0  0  0  0
  -24.7564   36.7593   22.3778 C   0  0  0  0  0  0  0  0  0  0  0  0
  -24.6143   35.5542   22.1761 O   0  0  0  0  0  0  0  0  0  0  0  0
  -22.4958   37.9218   22.7495 C   0  0  0  0  0  0  0  0  0  0  0  0
  -22.6214   38.9615   21.6481 C   0  0  0  0  0  0  0  0  0  0  0  0
  -22.8418   38.3393   20.2635 C   0  0  0  0  0  0  0  0  0  0  0  0
  -22.8391   39.1601   19.3138 O   0  0  0  0  0  0  0  0  0  0  0  0
  -22.9976   37.0897   20.2343 O   0  0  0  0  0  0  0  0  0  0  0  0
  -25.7881   37.5073   21.8583 N   0  0  0  0  0  0  0  0  0  0  0  0
  -26.5985   36.9752   20.7862 C   0  0  2  0  0  0  0  0  0  0  0  0
  -26.8034   38.0362   19.6923 C   0  0  0  0  0  0  0  0  0  0  0  0
  -27.0947   39.2069   19.9158 O   0  0  0  0  0  0  0  0  0  0  0  0
  -27.9186   36.4136   21.3245 C   0  0  0  0  0  0  0  0  0  0  0  0
  -28.9050   37.4365   21.8449 C   0  0  0  0  0  0  0  0  0  0  0  0
  -29.7218   38.1519   20.9580 C   0  0  0  0  0  0  0  0  0  0  0  0
  -29.0053   37.6999   23.2152 C   0  0  0  0  0  0  0  0  0  0  0  0
  -30.6087   39.1192   21.4284 C   0  0  0  0  0  0  0  0  0  0  0  0
  -29.9092   38.6527   23.6882 C   0  0  0  0  0  0  0  0  0  0  0  0
  -30.7098   39.3629   22.7948 C   0  0  0  0  0  0  0  0  0  0  0  0
  -26.7529   37.5525   18.4088 N   0  0  0  0  0  0  0  0  0  0  0  0
  -22.6940   38.4482   34.9628 H   0  0  0  0  0  0  0  0  0  0  0  0
  -20.9830   38.8697   34.7496 H   0  0  0  0  0  0  0  0  0  0  0  0
  -21.5789   37.3304   34.1525 H   0  0  0  0  0  0  0  0  0  0  0  0
  -24.2412   38.3428   32.8916 H   0  0  0  0  0  0  0  0  0  0  0  0
  -23.0789   37.2360   32.1178 H   0  0  0  0  0  0  0  0  0  0  0  0
  -23.5816   38.6964   31.2914 H   0  0  0  0  0  0  0  0  0  0  0  0
  -23.3368   40.6680   33.7891 H   0  0  0  0  0  0  0  0  0  0  0  0
  -22.6932   41.0345   32.1989 H   0  0  0  0  0  0  0  0  0  0  0  0
  -21.5977   41.0298   33.5628 H   0  0  0  0  0  0  0  0  0  0  0  0
  -19.4150   38.1854   30.6433 H   0  0  0  0  0  0  0  0  0  0  0  0
  -20.4889   39.8578   28.4056 H   0  0  0  0  0  0  0  0  0  0  0  0
  -19.3370   37.1369   27.8193 H   0  0  0  0  0  0  0  0  0  0  0  0
  -20.3293   37.7624   25.7561 H   0  0  0  0  0  0  0  0  0  0  0  0
  -18.0068   39.3586   27.4936 H   0  0  0  0  0  0  0  0  0  0  0  0
  -17.7002   38.9146   29.1732 H   0  0  0  0  0  0  0  0  0  0  0  0
  -20.1094   41.7154   28.3988 H   0  0  0  0  0  0  0  0  0  0  0  0
  -15.9987   40.6836   29.3118 H   0  0  0  0  0  0  0  0  0  0  0  0
  -19.6520   44.0126   28.8844 H   0  0  0  0  0  0  0  0  0  0  0  0
  -15.5539   43.0668   29.7641 H   0  0  0  0  0  0  0  0  0  0  0  0
  -17.3812   44.7395   29.5613 H   0  0  0  0  0  0  0  0  0  0  0  0
  -22.2078   38.1198   28.1348 H   0  0  0  0  0  0  0  0  0  0  0  0
  -21.4494   36.8649   29.1692 H   0  0  0  0  0  0  0  0  0  0  0  0
  -21.3840   36.2899   26.3416 H   0  0  0  0  0  0  0  0  0  0  0  0
  -23.5126   35.1758   26.5322 H   0  0  0  0  0  0  0  0  0  0  0  0
  -24.0370   37.5326   28.4759 H   0  0  0  0  0  0  0  0  0  0  0  0
  -24.0705   35.8262   28.9038 H   0  0  0  0  0  0  0  0  0  0  0  0
  -25.5574   34.5820   26.6565 H   0  0  0  0  0  0  0  0  0  0  0  0
  -26.1575   38.4534   28.5141 H   0  0  0  0  0  0  0  0  0  0  0  0
  -27.8650   34.5869   25.8999 H   0  0  0  0  0  0  0  0  0  0  0  0
  -28.5097   38.3973   27.7892 H   0  0  0  0  0  0  0  0  0  0  0  0
  -29.3641   36.4774   26.4729 H   0  0  0  0  0  0  0  0  0  0  0  0
  -23.5177   35.6622   24.2592 H   0  0  0  0  0  0  0  0  0  0  0  0
  -24.3816   38.4053   23.6800 H   0  0  0  0  0  0  0  0  0  0  0  0
  -21.9602   37.0311   22.3929 H   0  0  0  0  0  0  0  0  0  0  0  0
  -21.8781   38.3325   23.5576 H   0  0  0  0  0  0  0  0  0  0  0  0
  -21.6873   39.5356   21.6045 H   0  0  0  0  0  0  0  0  0  0  0  0
  -23.4238   39.6733   21.8774 H   0  0  0  0  0  0  0  0  0  0  0  0
  -25.9279   38.4814   22.1079 H   0  0  0  0  0  0  0  0  0  0  0  0
  -26.0484   36.1412   20.3304 H   0  0  0  0  0  0  0  0  0  0  0  0
  -27.6896   35.7136   22.1398 H   0  0  0  0  0  0  0  0  0  0  0  0
  -28.4116   35.8205   20.5473 H   0  0  0  0  0  0  0  0  0  0  0  0
  -29.6417   37.9912   19.8846 H   0  0  0  0  0  0  0  0  0  0  0  0
  -28.3740   37.1656   23.9189 H   0  0  0  0  0  0  0  0  0  0  0  0
  -31.2063   39.6889   20.7222 H   0  0  0  0  0  0  0  0  0  0  0  0
  -29.9826   38.8479   24.7534 H   0  0  0  0  0  0  0  0  0  0  0  0
  -31.4056   40.1126   23.1599 H   0  0  0  0  0  0  0  0  0  0  0  0
  -26.7364   38.2555   17.6786 H   0  0  0  0  0  0  0  0  0  0  0  0
  -26.2443   36.6960   18.2169 H   0  0  0  0  0  0  0  0  0  0  0  0
  -21.6228   35.3203   27.6440 H   0  0  0  0  0  0  0  0  0  0  0  0
  1  2  2  0  0  0  0
  2  3  1  0  0  0  0
  2  8  1  0  0  0  0
  3  4  1  0  0  0  0
  4  5  1  0  0  0  0
  4  6  1  0  0  0  0
  4  7  1  0  0  0  0
  5 52  1  0  0  0  0
  5 53  1  0  0  0  0
  5 54  1  0  0  0  0
  6 55  1  0  0  0  0
  6 56  1  0  0  0  0
  6 57  1  0  0  0  0
  7 58  1  0  0  0  0
  7 59  1  0  0  0  0
  7 60  1  0  0  0  0
  8  9  1  0  0  0  0
  8 61  1  0  0  0  0
  9 10  1  0  0  0  0
  9 12  1  0  0  0  0
  9 62  1  6  0  0  0
 10 11  1  0  0  0  0
 10 19  1  0  0  0  0
 10 63  1  1  0  0  0
 11 64  1  0  0  0  0
 12 13  1  0  0  0  0
 12 65  1  0  0  0  0
 12 66  1  0  0  0  0
 13 14  2  0  0  0  0
 13 15  1  0  0  0  0
 14 16  1  0  0  0  0
 14 67  1  0  0  0  0
 15 17  2  0  0  0  0
 15 68  1  0  0  0  0
 16 18  2  0  0  0  0
 16 69  1  0  0  0  0
 17 18  1  0  0  0  0
 17 70  1  0  0  0  0
 18 71  1  0  0  0  0
 19 20  1  0  0  0  0
 19 72  1  0  0  0  0
 19 73  1  0  0  0  0
 20 21  1  0  0  0  0
 20 74  1  0  0  0  0
 20100  1  0  0  0  0
 21 22  1  0  0  0  0
 21 24  1  0  0  0  0
 21 75  1  6  0  0  0
 22 23  2  0  0  0  0
 22 31  1  0  0  0  0
 24 25  1  0  0  0  0
 24 76  1  0  0  0  0
 24 77  1  0  0  0  0
 25 26  2  0  0  0  0
 25 27  1  0  0  0  0
 26 28  1  0  0  0  0
 26 78  1  0  0  0  0
 27 29  2  0  0  0  0
 27 79  1  0  0  0  0
 28 30  2  0  0  0  0
 28 80  1  0  0  0  0
 29 30  1  0  0  0  0
 29 81  1  0  0  0  0
 30 82  1  0  0  0  0
 31 32  1  0  0  0  0
 31 83  1  0  0  0  0
 32 33  1  0  0  0  0
 32 35  1  0  0  0  0
 32 84  1  1  0  0  0
 33 34  2  0  0  0  0
 33 40  1  0  0  0  0
 35 36  1  0  0  0  0
 35 85  1  0  0  0  0
 35 86  1  0  0  0  0
 36 37  1  0  0  0  0
 36 87  1  0  0  0  0
 36 88  1  0  0  0  0
 37 38  2  0  0  0  0
 37 39  1  0  0  0  0
 40 41  1  0  0  0  0
 40 89  1  0  0  0  0
 41 42  1  0  0  0  0
 41 44  1  0  0  0  0
 41 90  1  6  0  0  0
 42 43  2  0  0  0  0
 42 51  1  0  0  0  0
 44 45  1  0  0  0  0
 44 91  1  0  0  0  0
 44 92  1  0  0  0  0
 45 46  2  0  0  0  0
 45 47  1  0  0  0  0
 46 48  1  0  0  0  0
 46 93  1  0  0  0  0
 47 49  2  0  0  0  0
 47 94  1  0  0  0  0
 48 50  2  0  0  0  0
 48 95  1  0  0  0  0
 49 50  1  0  0  0  0
 49 96  1  0  0  0  0
 50 97  1  0  0  0  0
 51 98  1  0  0  0  0
 51 99  1  0  0  0  0
M  CHG  1  20   1
M  END
$$$$
