120
 OpenBabel04041914493D

 31 33  0  0  0  0  0  0  0  0999 V2000
   45.5065   19.2534   52.9481 C   0  0  0  0  0  0  0  0  0  0  0  0
   44.9676   18.8681   51.6958 C   0  0  0  0  0  0  0  0  0  0  0  0
   44.6422   19.7904   50.6909 C   0  0  0  0  0  0  0  0  0  0  0  0
   44.9089   21.1198   50.9776 C   0  0  0  0  0  0  0  0  0  0  0  0
   45.4484   21.5492   52.1768 C   0  0  0  0  0  0  0  0  0  0  0  0
   45.7352   20.6209   53.1814 C   0  0  0  0  0  0  0  0  0  0  0  0
   45.8310   18.2498   53.9899 C   0  0  0  0  0  0  0  0  0  0  0  0
   46.5788   18.5713   55.0275 N   0  0  0  0  0  0  0  0  0  0  0  0
   45.3725   17.0189   53.8974 N   0  0  0  0  0  0  0  0  0  0  0  0
   44.7470   22.2697   50.2562 N   0  3  0  0  0  0  0  0  0  0  0  0
   45.6403   22.8985   52.1846 N   0  0  0  0  0  0  0  0  0  0  0  0
   45.2227   23.3215   51.0042 C   0  0  0  0  0  0  0  0  0  0  0  0
   45.2306   24.6194   50.4404 C   0  0  0  0  0  0  0  0  0  0  0  0
   45.9019   25.6037   51.0639 C   0  0  0  0  0  0  0  0  0  0  0  0
   45.9546   26.9358   50.5164 C   0  0  0  0  0  0  0  0  0  0  0  0
   45.3160   27.2128   49.3728 C   0  0  0  0  0  0  0  0  0  0  0  0
   44.6177   26.2342   48.7146 N   0  3  0  0  0  0  0  0  0  0  0  0
   44.5265   24.9346   49.1490 C   0  0  0  0  0  0  0  0  0  0  0  0
   43.9155   24.0758   48.5132 O   0  0  0  0  0  0  0  0  0  0  0  0
   44.7896   17.8268   51.4474 H   0  0  0  0  0  0  0  0  0  0  0  0
   44.2233   19.4803   49.7385 H   0  0  0  0  0  0  0  0  0  0  0  0
   46.1293   21.0201   54.1061 H   0  0  0  0  0  0  0  0  0  0  0  0
   46.8045   17.9094   55.7590 H   0  0  0  0  0  0  0  0  0  0  0  0
   46.9682   19.4984   55.1356 H   0  0  0  0  0  0  0  0  0  0  0  0
   45.5811   16.3100   54.5880 H   0  0  0  0  0  0  0  0  0  0  0  0
   44.3583   22.3552   49.3217 H   0  0  0  0  0  0  0  0  0  0  0  0
   46.4342   25.4213   51.9954 H   0  0  0  0  0  0  0  0  0  0  0  0
   46.5207   27.6923   51.0503 H   0  0  0  0  0  0  0  0  0  0  0  0
   45.3259   28.1996   48.9222 H   0  0  0  0  0  0  0  0  0  0  0  0
   44.1396   26.4497   47.8464 H   0  0  0  0  0  0  0  0  0  0  0  0
   44.7756   16.7348   53.1316 H   0  0  0  0  0  0  0  0  0  0  0  0
  1  7  1  0  0  0  0
  1  6  2  0  0  0  0
  1  2  1  0  0  0  0
  2  3  2  0  0  0  0
  2 20  1  0  0  0  0
  3  4  1  0  0  0  0
  3 21  1  0  0  0  0
  4 10  1  0  0  0  0
  4  5  2  0  0  0  0
  5 11  1  0  0  0  0
  5  6  1  0  0  0  0
  6 22  1  0  0  0  0
  7  9  2  0  0  0  0
  7  8  1  0  0  0  0
  8 23  1  0  0  0  0
  8 24  1  0  0  0  0
  9 25  1  0  0  0  0
  9 31  1  0  0  0  0
 10 12  2  0  0  0  0
 10 26  1  0  0  0  0
 11 12  1  0  0  0  0
 12 13  1  0  0  0  0
 13 18  1  0  0  0  0
 13 14  2  0  0  0  0
 14 15  1  0  0  0  0
 14 27  1  0  0  0  0
 15 16  2  0  0  0  0
 15 28  1  0  0  0  0
 16 17  1  0  0  0  0
 16 29  1  0  0  0  0
 17 18  1  0  0  0  0
 17 30  1  0  0  0  0
 18 19  2  0  0  0  0
M  CHG  2  10   1  17   1
M  END
$$$$
