120
 OpenBabel04041914493D

 31 33  0  0  0  0  0  0  0  0999 V2000
    8.9706    0.7970   24.9941 C   0  0  0  0  0  0  0  0  0  0  0  0
    9.5632    0.9989   23.7258 C   0  0  0  0  0  0  0  0  0  0  0  0
   10.0117    2.2451   23.2876 C   0  0  0  0  0  0  0  0  0  0  0  0
    9.8326    3.2832   24.1809 C   0  0  0  0  0  0  0  0  0  0  0  0
    9.2569    3.1321   25.4275 C   0  0  0  0  0  0  0  0  0  0  0  0
    8.8149    1.8891   25.8542 C   0  0  0  0  0  0  0  0  0  0  0  0
    8.5248   -0.5364   25.4288 C   0  0  0  0  0  0  0  0  0  0  0  0
    7.8136   -0.6735   26.5307 N   0  0  0  0  0  0  0  0  0  0  0  0
    8.8494   -1.6002   24.7238 N   0  0  0  0  0  0  0  0  0  0  0  0
   10.1281    4.6123   24.1118 N   0  3  0  0  0  0  0  0  0  0  0  0
    9.1991    4.2973   26.1054 N   0  0  0  0  0  0  0  0  0  0  0  0
    9.7196    5.1895   25.2901 C   0  0  0  0  0  0  0  0  0  0  0  0
    9.8921    6.5646   25.4951 C   0  0  0  0  0  0  0  0  0  0  0  0
    9.6908    7.0457   26.7341 C   0  0  0  0  0  0  0  0  0  0  0  0
    9.8251    8.4504   27.0063 C   0  0  0  0  0  0  0  0  0  0  0  0
   10.1451    9.2847   26.0101 C   0  0  0  0  0  0  0  0  0  0  0  0
   10.3519    8.8166   24.7368 N   0  3  0  0  0  0  0  0  0  0  0  0
   10.2578    7.4940   24.3792 C   0  0  0  0  0  0  0  0  0  0  0  0
   10.4633    7.1011   23.2349 O   0  0  0  0  0  0  0  0  0  0  0  0
    9.6954    0.1866   23.0192 H   0  0  0  0  0  0  0  0  0  0  0  0
   10.4651    2.3919   22.3138 H   0  0  0  0  0  0  0  0  0  0  0  0
    8.3840    1.8563   26.8454 H   0  0  0  0  0  0  0  0  0  0  0  0
    7.5029   -1.5696   26.8534 H   0  0  0  0  0  0  0  0  0  0  0  0
    7.5466    0.1235   27.0947 H   0  0  0  0  0  0  0  0  0  0  0  0
    8.5590   -2.5244   24.9926 H   0  0  0  0  0  0  0  0  0  0  0  0
   10.5478    5.1026   23.3277 H   0  0  0  0  0  0  0  0  0  0  0  0
    9.4164    6.3873   27.5578 H   0  0  0  0  0  0  0  0  0  0  0  0
    9.6538    8.7940   28.0208 H   0  0  0  0  0  0  0  0  0  0  0  0
   10.2542   10.3511   26.1598 H   0  0  0  0  0  0  0  0  0  0  0  0
   10.5912    9.4578   23.9894 H   0  0  0  0  0  0  0  0  0  0  0  0
    9.4046   -1.5267   23.8854 H   0  0  0  0  0  0  0  0  0  0  0  0
  1  7  1  0  0  0  0
  1  6  2  0  0  0  0
  1  2  1  0  0  0  0
  2  3  2  0  0  0  0
  2 20  1  0  0  0  0
  3  4  1  0  0  0  0
  3 21  1  0  0  0  0
  4 10  1  0  0  0  0
  4  5  2  0  0  0  0
  5 11  1  0  0  0  0
  5  6  1  0  0  0  0
  6 22  1  0  0  0  0
  7  9  2  0  0  0  0
  7  8  1  0  0  0  0
  8 23  1  0  0  0  0
  8 24  1  0  0  0  0
  9 25  1  0  0  0  0
  9 31  1  0  0  0  0
 10 12  2  0  0  0  0
 10 26  1  0  0  0  0
 11 12  1  0  0  0  0
 12 13  1  0  0  0  0
 13 18  1  0  0  0  0
 13 14  2  0  0  0  0
 14 15  1  0  0  0  0
 14 27  1  0  0  0  0
 15 16  2  0  0  0  0
 15 28  1  0  0  0  0
 16 17  1  0  0  0  0
 16 29  1  0  0  0  0
 17 18  1  0  0  0  0
 17 30  1  0  0  0  0
 18 19  2  0  0  0  0
M  CHG  2  10   1  17   1
M  END
$$$$
