120
 OpenBabel04041914483D

 31 33  0  0  0  0  0  0  0  0999 V2000
   11.7851  -11.7289   22.9864 C   0  0  0  0  0  0  0  0  0  0  0  0
   12.2924  -10.4607   22.6214 C   0  0  0  0  0  0  0  0  0  0  0  0
   13.2258  -10.2841   21.5872 C   0  0  0  0  0  0  0  0  0  0  0  0
   13.6059  -11.4339   20.9079 C   0  0  0  0  0  0  0  0  0  0  0  0
   13.1238  -12.6930   21.2130 C   0  0  0  0  0  0  0  0  0  0  0  0
   12.2227  -12.8552   22.2686 C   0  0  0  0  0  0  0  0  0  0  0  0
   10.8185  -11.8937   24.0950 C   0  0  0  0  0  0  0  0  0  0  0  0
   10.1001  -12.9927   24.2033 N   0  0  0  0  0  0  0  0  0  0  0  0
   10.6747  -10.9440   24.9962 N   0  0  0  0  0  0  0  0  0  0  0  0
   14.4621  -11.6543   19.8643 N   0  3  0  0  0  0  0  0  0  0  0  0
   13.6313  -13.6426   20.3804 N   0  0  0  0  0  0  0  0  0  0  0  0
   14.4358  -12.9967   19.5571 C   0  0  0  0  0  0  0  0  0  0  0  0
   15.2027  -13.4777   18.4704 C   0  0  0  0  0  0  0  0  0  0  0  0
   15.0380  -14.7482   18.0626 C   0  0  0  0  0  0  0  0  0  0  0  0
   15.7922  -15.2848   16.9575 C   0  0  0  0  0  0  0  0  0  0  0  0
   16.6829  -14.5136   16.3254 C   0  0  0  0  0  0  0  0  0  0  0  0
   16.8787  -13.2139   16.7158 N   0  3  0  0  0  0  0  0  0  0  0  0
   16.1965  -12.6119   17.7470 C   0  0  0  0  0  0  0  0  0  0  0  0
   16.3817  -11.4368   18.0522 O   0  0  0  0  0  0  0  0  0  0  0  0
   11.9684   -9.5528   23.1257 H   0  0  0  0  0  0  0  0  0  0  0  0
   13.6158   -9.3056   21.3248 H   0  0  0  0  0  0  0  0  0  0  0  0
   11.9101  -13.8692   22.4818 H   0  0  0  0  0  0  0  0  0  0  0  0
    9.4524  -13.1488   24.9633 H   0  0  0  0  0  0  0  0  0  0  0  0
   10.1663  -13.7369   23.5168 H   0  0  0  0  0  0  0  0  0  0  0  0
   10.0197  -11.0212   25.7632 H   0  0  0  0  0  0  0  0  0  0  0  0
   15.0279  -10.9637   19.3793 H   0  0  0  0  0  0  0  0  0  0  0  0
   14.3251  -15.4101   18.5524 H   0  0  0  0  0  0  0  0  0  0  0  0
   15.6165  -16.3146   16.6628 H   0  0  0  0  0  0  0  0  0  0  0  0
   17.2781  -14.8714   15.4889 H   0  0  0  0  0  0  0  0  0  0  0  0
   17.5531  -12.6336   16.2306 H   0  0  0  0  0  0  0  0  0  0  0  0
   11.2333  -10.1012   24.9627 H   0  0  0  0  0  0  0  0  0  0  0  0
  1  7  1  0  0  0  0
  1  6  2  0  0  0  0
  1  2  1  0  0  0  0
  2  3  2  0  0  0  0
  2 20  1  0  0  0  0
  3  4  1  0  0  0  0
  3 21  1  0  0  0  0
  4 10  1  0  0  0  0
  4  5  2  0  0  0  0
  5 11  1  0  0  0  0
  5  6  1  0  0  0  0
  6 22  1  0  0  0  0
  7  9  2  0  0  0  0
  7  8  1  0  0  0  0
  8 23  1  0  0  0  0
  8 24  1  0  0  0  0
  9 25  1  0  0  0  0
  9 31  1  0  0  0  0
 10 12  2  0  0  0  0
 10 26  1  0  0  0  0
 11 12  1  0  0  0  0
 12 13  1  0  0  0  0
 13 18  1  0  0  0  0
 13 14  2  0  0  0  0
 14 15  1  0  0  0  0
 14 27  1  0  0  0  0
 15 16  2  0  0  0  0
 15 28  1  0  0  0  0
 16 17  1  0  0  0  0
 16 29  1  0  0  0  0
 17 18  1  0  0  0  0
 17 30  1  0  0  0  0
 18 19  2  0  0  0  0
M  CHG  2  10   1  17   1
M  END
$$$$
