121
 OpenBabel04041914493D

 31 33  0  0  0  0  0  0  0  0999 V2000
   12.0804  -11.7618   22.8539 C   0  0  0  0  0  0  0  0  0  0  0  0
   12.0844  -10.6887   21.9402 C   0  0  0  0  0  0  0  0  0  0  0  0
   13.0177  -10.6148   20.8997 C   0  0  0  0  0  0  0  0  0  0  0  0
   13.9565  -11.6435   20.7770 C   0  0  0  0  0  0  0  0  0  0  0  0
   13.9503  -12.6867   21.6944 C   0  0  0  0  0  0  0  0  0  0  0  0
   13.0284  -12.7963   22.7335 C   0  0  0  0  0  0  0  0  0  0  0  0
   11.1163  -11.7880   23.9574 C   0  0  0  0  0  0  0  0  0  0  0  0
   10.4732  -12.8953   24.2412 N   0  0  0  0  0  0  0  0  0  0  0  0
   10.9318  -10.6845   24.6519 N   0  0  0  0  0  0  0  0  0  0  0  0
   14.9501  -11.8056   19.8511 N   0  0  0  0  0  0  0  0  0  0  0  0
   15.0209  -13.4556   21.3326 N   0  3  0  0  0  0  0  0  0  0  0  0
   15.6212  -12.8723   20.2475 C   0  0  0  0  0  0  0  0  0  0  0  0
   16.8410  -13.4116   19.6728 C   0  0  0  0  0  0  0  0  0  0  0  0
   17.5882  -14.1276   20.5532 N   0  0  0  0  0  0  0  0  0  0  0  0
   18.7648  -14.5864   20.0822 C   0  0  0  0  0  0  0  0  0  0  0  0
   19.2065  -14.3983   18.7818 C   0  0  0  0  0  0  0  0  0  0  0  0
   18.3967  -13.6919   17.8951 C   0  0  0  0  0  0  0  0  0  0  0  0
   17.1920  -13.1795   18.3472 C   0  0  0  0  0  0  0  0  0  0  0  0
   16.4135  -12.4827   17.4671 O   0  0  0  0  0  0  0  0  0  0  0  0
   11.3514   -9.8883   22.0195 H   0  0  0  0  0  0  0  0  0  0  0  0
   13.0321   -9.7786   20.2070 H   0  0  0  0  0  0  0  0  0  0  0  0
   13.0796  -13.6273   23.4319 H   0  0  0  0  0  0  0  0  0  0  0  0
    9.8061  -12.9602   24.9952 H   0  0  0  0  0  0  0  0  0  0  0  0
   10.6177  -13.7248   23.6721 H   0  0  0  0  0  0  0  0  0  0  0  0
   10.2895  -10.6283   25.4252 H   0  0  0  0  0  0  0  0  0  0  0  0
   15.3763  -14.2876   21.7855 H   0  0  0  0  0  0  0  0  0  0  0  0
   19.3781  -15.1243   20.8099 H   0  0  0  0  0  0  0  0  0  0  0  0
   20.1667  -14.7946   18.4611 H   0  0  0  0  0  0  0  0  0  0  0  0
   18.7055  -13.5338   16.8688 H   0  0  0  0  0  0  0  0  0  0  0  0
   15.6661  -12.0927   17.9696 H   0  0  0  0  0  0  0  0  0  0  0  0
   11.4717   -9.8525   24.4326 H   0  0  0  0  0  0  0  0  0  0  0  0
  1  7  1  0  0  0  0
  1  6  2  0  0  0  0
  1  2  1  0  0  0  0
  2  3  2  0  0  0  0
  2 20  1  0  0  0  0
  3  4  1  0  0  0  0
  3 21  1  0  0  0  0
  4 10  1  0  0  0  0
  4  5  2  0  0  0  0
  5 11  1  0  0  0  0
  5  6  1  0  0  0  0
  6 22  1  0  0  0  0
  7  9  2  0  0  0  0
  7  8  1  0  0  0  0
  8 23  1  0  0  0  0
  8 24  1  0  0  0  0
  9 25  1  0  0  0  0
  9 31  1  0  0  0  0
 10 12  1  0  0  0  0
 11 12  2  0  0  0  0
 11 26  1  0  0  0  0
 12 13  1  0  0  0  0
 13 18  2  0  0  0  0
 13 14  1  0  0  0  0
 14 15  2  0  0  0  0
 15 16  1  0  0  0  0
 15 27  1  0  0  0  0
 16 17  2  0  0  0  0
 16 28  1  0  0  0  0
 17 18  1  0  0  0  0
 17 29  1  0  0  0  0
 18 19  1  0  0  0  0
 19 30  1  0  0  0  0
M  CHG  1  11   1
M  END
$$$$
