122
 OpenBabel04041914493D

 32 34  0  0  0  0  0  0  0  0999 V2000
   43.9108   -2.5833   26.2721 C   0  0  0  0  0  0  0  0  0  0  0  0
   44.4712   -1.3042   26.4806 C   0  0  0  0  0  0  0  0  0  0  0  0
   44.3094   -0.5983   27.6919 C   0  0  0  0  0  0  0  0  0  0  0  0
   43.5857   -1.2010   28.7309 C   0  0  0  0  0  0  0  0  0  0  0  0
   43.0418   -2.4544   28.5078 C   0  0  0  0  0  0  0  0  0  0  0  0
   43.1602   -3.1620   27.3125 C   0  0  0  0  0  0  0  0  0  0  0  0
   44.0923   -3.3239   24.9977 C   0  0  0  0  0  0  0  0  0  0  0  0
   43.9655   -4.6364   24.9678 N   0  0  0  0  0  0  0  0  0  0  0  0
   44.3713   -2.6832   23.8824 N   0  0  0  0  0  0  0  0  0  0  0  0
   43.2947   -0.7629   30.0031 N   0  0  0  0  0  0  0  0  0  0  0  0
   42.4229   -2.7655   29.6804 N   0  3  0  0  0  0  0  0  0  0  0  0
   42.5592   -1.7194   30.5575 C   0  0  0  0  0  0  0  0  0  0  0  0
   41.9722   -1.7341   31.9052 C   0  0  0  0  0  0  0  0  0  0  0  0
   41.0268   -2.7133   32.2577 C   0  0  0  0  0  0  0  0  0  0  0  0
   40.4754   -2.7589   33.5377 C   0  0  0  0  0  0  0  0  0  0  0  0
   40.8542   -1.8156   34.4875 C   0  0  0  0  0  0  0  0  0  0  0  0
   41.7823   -0.8300   34.1559 C   0  0  0  0  0  0  0  0  0  0  0  0
   42.3364   -0.7896   32.8749 C   0  0  0  0  0  0  0  0  0  0  0  0
   43.2441    0.2065   32.6311 O   0  0  0  0  0  0  0  0  0  0  0  0
   45.0694   -0.8171   25.7130 H   0  0  0  0  0  0  0  0  0  0  0  0
   44.7423    0.3889   27.8314 H   0  0  0  0  0  0  0  0  0  0  0  0
   42.6659   -4.1228   27.2190 H   0  0  0  0  0  0  0  0  0  0  0  0
   44.0496   -5.1719   24.1131 H   0  0  0  0  0  0  0  0  0  0  0  0
   43.7952   -5.1692   25.8115 H   0  0  0  0  0  0  0  0  0  0  0  0
   44.5084   -3.1645   23.0035 H   0  0  0  0  0  0  0  0  0  0  0  0
   41.9474   -3.6336   29.8799 H   0  0  0  0  0  0  0  0  0  0  0  0
   40.6824   -3.4592   31.5485 H   0  0  0  0  0  0  0  0  0  0  0  0
   39.7482   -3.5272   33.7891 H   0  0  0  0  0  0  0  0  0  0  0  0
   40.4218   -1.8475   35.4839 H   0  0  0  0  0  0  0  0  0  0  0  0
   42.0746   -0.0898   34.8966 H   0  0  0  0  0  0  0  0  0  0  0  0
   43.4986    0.1498   31.6843 H   0  0  0  0  0  0  0  0  0  0  0  0
   44.4441   -1.6738   23.8634 H   0  0  0  0  0  0  0  0  0  0  0  0
  1  7  1  0  0  0  0
  1  6  2  0  0  0  0
  1  2  1  0  0  0  0
  2  3  2  0  0  0  0
  2 20  1  0  0  0  0
  3  4  1  0  0  0  0
  3 21  1  0  0  0  0
  4 10  1  0  0  0  0
  4  5  2  0  0  0  0
  5 11  1  0  0  0  0
  5  6  1  0  0  0  0
  6 22  1  0  0  0  0
  7  9  2  0  0  0  0
  7  8  1  0  0  0  0
  8 23  1  0  0  0  0
  8 24  1  0  0  0  0
  9 25  1  0  0  0  0
  9 32  1  0  0  0  0
 10 12  1  0  0  0  0
 11 12  2  0  0  0  0
 11 26  1  0  0  0  0
 12 13  1  0  0  0  0
 13 18  2  0  0  0  0
 13 14  1  0  0  0  0
 14 15  2  0  0  0  0
 14 27  1  0  0  0  0
 15 16  1  0  0  0  0
 15 28  1  0  0  0  0
 16 17  2  0  0  0  0
 16 29  1  0  0  0  0
 17 18  1  0  0  0  0
 17 30  1  0  0  0  0
 18 19  1  0  0  0  0
 19 31  1  0  0  0  0
M  CHG  1  11   1
M  END
$$$$
