130
 OpenBabel04041914503D

 42 45  0  0  0  0  0  0  0  0999 V2000
    8.7580    1.2813   24.6942 C   0  0  0  0  0  0  0  0  0  0  0  0
    9.5450    1.1602   23.5262 C   0  0  0  0  0  0  0  0  0  0  0  0
   10.0909    2.2768   22.8723 C   0  0  0  0  0  0  0  0  0  0  0  0
    9.8599    3.5368   23.4270 C   0  0  0  0  0  0  0  0  0  0  0  0
    9.0960    3.6469   24.5717 C   0  0  0  0  0  0  0  0  0  0  0  0
    8.5170    2.5626   25.2254 C   0  0  0  0  0  0  0  0  0  0  0  0
    8.1820    0.0915   25.3621 C   0  0  0  0  0  0  0  0  0  0  0  0
    7.7942    0.1572   26.6215 N   0  0  0  0  0  0  0  0  0  0  0  0
    8.0375   -1.0371   24.7029 N   0  0  0  0  0  0  0  0  0  0  0  0
   10.2848    4.7642   23.0106 N   0  0  0  0  0  0  0  0  0  0  0  0
    9.0740    4.9862   24.8452 N   0  3  0  0  0  0  0  0  0  0  0  0
    9.8232    5.6298   23.8974 C   0  0  0  0  0  0  0  0  0  0  0  0
   10.0593    7.0691   23.8714 C   0  0  0  0  0  0  0  0  0  0  0  0
    9.7004    7.8847   24.9560 C   0  0  0  0  0  0  0  0  0  0  0  0
    9.9402    9.2535   24.9204 C   0  0  0  0  0  0  0  0  0  0  0  0
   10.5492    9.8172   23.8029 C   0  0  0  0  0  0  0  0  0  0  0  0
   10.9273    9.0321   22.6994 C   0  0  0  0  0  0  0  0  0  0  0  0
   10.6694    7.6547   22.7480 C   0  0  0  0  0  0  0  0  0  0  0  0
   11.0184    6.8909   21.6548 O   0  0  0  0  0  0  0  0  0  0  0  0
   11.5859    9.6648   21.5498 C   0  0  0  0  0  0  0  0  0  0  0  0
   12.8497    9.2342   21.1145 C   0  0  0  0  0  0  0  0  0  0  0  0
   13.4868    9.8582   20.0421 C   0  0  0  0  0  0  0  0  0  0  0  0
   12.8655   10.9216   19.3926 C   0  0  0  0  0  0  0  0  0  0  0  0
   11.6055   11.3532   19.8022 C   0  0  0  0  0  0  0  0  0  0  0  0
   10.9679   10.7253   20.8720 C   0  0  0  0  0  0  0  0  0  0  0  0
    9.7763    0.1932   23.0871 H   0  0  0  0  0  0  0  0  0  0  0  0
   10.6888    2.1773   21.9712 H   0  0  0  0  0  0  0  0  0  0  0  0
    7.9077    2.7430   26.1016 H   0  0  0  0  0  0  0  0  0  0  0  0
    7.3686   -0.6280   27.0981 H   0  0  0  0  0  0  0  0  0  0  0  0
    7.9206    0.9974   27.1692 H   0  0  0  0  0  0  0  0  0  0  0  0
    7.6540   -1.8694   25.1273 H   0  0  0  0  0  0  0  0  0  0  0  0
    8.6000    5.4287   25.6166 H   0  0  0  0  0  0  0  0  0  0  0  0
    9.2420    7.4800   25.8520 H   0  0  0  0  0  0  0  0  0  0  0  0
    9.6655    9.8818   25.7635 H   0  0  0  0  0  0  0  0  0  0  0  0
   10.7487   10.8875   23.7983 H   0  0  0  0  0  0  0  0  0  0  0  0
   10.8383    5.9500   21.8656 H   0  0  0  0  0  0  0  0  0  0  0  0
   13.3410    8.3991   21.6101 H   0  0  0  0  0  0  0  0  0  0  0  0
   14.4627    9.5106   19.7174 H   0  0  0  0  0  0  0  0  0  0  0  0
   13.3619   11.4118   18.5595 H   0  0  0  0  0  0  0  0  0  0  0  0
   11.1156   12.1749   19.2895 H   0  0  0  0  0  0  0  0  0  0  0  0
    9.9768   11.0598   21.1710 H   0  0  0  0  0  0  0  0  0  0  0  0
    8.2981   -1.1096   23.7267 H   0  0  0  0  0  0  0  0  0  0  0  0
  1  7  1  0  0  0  0
  1  6  2  0  0  0  0
  1  2  1  0  0  0  0
  2  3  2  0  0  0  0
  2 26  1  0  0  0  0
  3  4  1  0  0  0  0
  3 27  1  0  0  0  0
  4 10  1  0  0  0  0
  4  5  2  0  0  0  0
  5 11  1  0  0  0  0
  5  6  1  0  0  0  0
  6 28  1  0  0  0  0
  7  9  2  0  0  0  0
  7  8  1  0  0  0  0
  8 29  1  0  0  0  0
  8 30  1  0  0  0  0
  9 31  1  0  0  0  0
  9 42  1  0  0  0  0
 10 12  1  0  0  0  0
 11 12  2  0  0  0  0
 11 32  1  0  0  0  0
 12 13  1  0  0  0  0
 13 18  2  0  0  0  0
 13 14  1  0  0  0  0
 14 15  2  0  0  0  0
 14 33  1  0  0  0  0
 15 16  1  0  0  0  0
 15 34  1  0  0  0  0
 16 17  2  0  0  0  0
 16 35  1  0  0  0  0
 17 20  1  0  0  0  0
 17 18  1  0  0  0  0
 18 19  1  0  0  0  0
 19 36  1  0  0  0  0
 20 25  2  0  0  0  0
 20 21  1  0  0  0  0
 21 22  2  0  0  0  0
 21 37  1  0  0  0  0
 22 23  1  0  0  0  0
 22 38  1  0  0  0  0
 23 24  2  0  0  0  0
 23 39  1  0  0  0  0
 24 25  1  0  0  0  0
 24 40  1  0  0  0  0
 25 41  1  0  0  0  0
M  CHG  1  11   1
M  END
$$$$
