132
 OpenBabel04041916063D

 43 46  0  0  1  0  0  0  0  0999 V2000
   16.2220   -6.7488   25.1664 C   0  0  1  0  0  0  0  0  0  0  0  0
   14.9756   -6.1080   24.9799 C   0  0  2  0  0  0  0  0  0  0  0  0
   14.5491   -5.0828   25.7924 C   0  0  0  0  0  0  0  0  0  0  0  0
   15.4209   -4.7694   26.8263 C   0  0  2  0  0  0  0  0  0  0  0  0
   16.6368   -5.3604   27.0725 C   0  0  2  0  0  0  0  0  0  0  0  0
   17.0386   -6.3677   26.2367 C   0  0  0  0  0  0  0  0  0  0  0  0
   16.7363   -7.8410   24.3528 C   0  0  0  0  0  0  0  0  0  0  0  0
   18.0160   -8.1892   24.4245 N   0  0  0  0  0  0  0  0  0  0  0  0
   15.9464   -8.5019   23.5696 N   0  0  0  0  0  0  0  0  0  0  0  0
   15.2477   -3.9165   27.8372 N   0  3  0  0  0  0  0  0  0  0  0  0
   17.2176   -4.7968   28.1956 C   0  0  0  0  0  0  0  0  0  0  0  0
   16.3209   -3.8489   28.6953 C   0  0  2  0  0  0  0  0  0  0  0  0
   16.4455   -3.0295   29.8776 C   0  0  2  0  0  0  0  0  0  0  0  0
   17.5246   -3.2796   30.7370 C   0  0  0  0  0  0  0  0  0  0  0  0
   17.6982   -2.5498   31.9001 C   0  0  0  0  0  0  0  0  0  0  0  0
   16.7981   -1.5397   32.2012 C   0  0  0  0  0  0  0  0  0  0  0  0
   15.7124   -1.2427   31.3629 C   0  0  2  0  0  0  0  0  0  0  0  0
   15.5359   -2.0100   30.2060 C   0  0  2  0  0  0  0  0  0  0  0  0
   14.4320   -1.7062   29.4512 O   0  0  0  0  0  0  0  0  0  0  0  0
   14.8209   -0.1295   31.7105 C   0  0  0  0  0  0  0  0  0  0  0  0
   14.2788   -0.0408   33.0006 C   0  0  0  0  0  0  0  0  0  0  0  0
   13.4727    1.0321   33.3659 C   0  0  0  0  0  0  0  0  0  0  0  0
   13.1900    2.0329   32.4420 C   0  0  0  0  0  0  0  0  0  0  0  0
   13.7105    1.9618   31.1546 C   0  0  0  0  0  0  0  0  0  0  0  0
   14.5238    0.8880   30.7913 C   0  0  0  0  0  0  0  0  0  0  0  0
   13.8378   -6.5609   23.7502 Cl  0  0  0  0  0  0  0  0  0  0  0  0
   13.5916   -4.5748   25.6873 H   0  0  0  0  0  0  0  0  0  0  0  0
   17.9667   -6.8490   26.5157 H   0  0  0  0  0  0  0  0  0  0  0  0
   18.3954   -8.9489   23.8916 H   0  0  0  0  0  0  0  0  0  0  0  0
   14.9556   -8.2290   23.5121 H   0  0  0  0  0  0  0  0  0  0  0  0
   16.2569   -9.2551   22.9861 H   0  0  0  0  0  0  0  0  0  0  0  0
   14.3577   -3.4381   27.9099 H   0  0  0  0  0  0  0  0  0  0  0  0
   18.1728   -5.0863   28.6264 H   0  0  0  0  0  0  0  0  0  0  0  0
   18.2509   -4.0588   30.5286 H   0  0  0  0  0  0  0  0  0  0  0  0
   18.5264   -2.7605   32.5681 H   0  0  0  0  0  0  0  0  0  0  0  0
   16.9525   -0.9568   33.1026 H   0  0  0  0  0  0  0  0  0  0  0  0
   14.5993   -1.9686   28.5472 H   0  0  0  0  0  0  0  0  0  0  0  0
   14.4947   -0.8171   33.7315 H   0  0  0  0  0  0  0  0  0  0  0  0
   13.0695    1.0854   34.3745 H   0  0  0  0  0  0  0  0  0  0  0  0
   12.5601    2.8733   32.7291 H   0  0  0  0  0  0  0  0  0  0  0  0
   13.4923    2.7395   30.4312 H   0  0  0  0  0  0  0  0  0  0  0  0
   14.9306    0.8526   29.7824 H   0  0  0  0  0  0  0  0  0  0  0  0
   18.6724   -7.7010   25.0154 H   0  0  0  0  0  0  0  0  0  0  0  0
  1  2  1  0  0  0  0
  1  6  1  0  0  0  0
  1  7  1  1  0  0  0
  2  3  1  0  0  0  0
  2 26  1  1  0  0  0
  3 27  1  0  0  0  0
  4  3  1  1  0  0  0
  4  5  1  0  0  0  0
  4 10  1  0  0  0  0
  5  6  1  1  0  0  0
  5 11  1  0  0  0  0
  6 28  1  0  0  0  0
  7  8  2  0  0  0  0
  7  9  1  0  0  0  0
  8 29  1  0  0  0  0
  8 43  1  0  0  0  0
  9 30  1  0  0  0  0
  9 31  1  0  0  0  0
 10 32  1  0  0  0  0
 11 12  1  0  0  0  0
 11 33  1  0  0  0  0
 12 10  1  1  0  0  0
 12 13  1  0  0  0  0
 13 14  1  1  0  0  0
 13 18  1  0  0  0  0
 14 15  1  0  0  0  0
 14 34  1  0  0  0  0
 15 16  1  0  0  0  0
 15 35  1  0  0  0  0
 16 17  1  0  0  0  0
 16 36  1  0  0  0  0
 17 18  1  0  0  0  0
 17 20  1  6  0  0  0
 18 19  1  1  0  0  0
 19 37  1  0  0  0  0
 20 21  1  0  0  0  0
 20 25  1  0  0  0  0
 21 22  1  0  0  0  0
 21 38  1  0  0  0  0
 22 23  1  0  0  0  0
 22 39  1  0  0  0  0
 23 24  1  0  0  0  0
 23 40  1  0  0  0  0
 24 25  1  0  0  0  0
 24 41  1  0  0  0  0
 25 42  1  0  0  0  0
M  CHG  1  10   1
M  END
$$$$
