132
 OpenBabel04041914503D

 43 46  0  0  1  0  0  0  0  0999 V2000
   43.9424   -3.0294   25.5971 C   0  0  2  0  0  0  0  0  0  0  0  0
   43.7358   -1.6345   25.5500 C   0  0  1  0  0  0  0  0  0  0  0  0
   43.5193   -0.8728   26.6997 C   0  0  0  0  0  0  0  0  0  0  0  0
   43.4864   -1.5647   27.9019 C   0  0  2  0  0  0  0  0  0  0  0  0
   43.6880   -2.9329   28.0015 C   0  0  1  0  0  0  0  0  0  0  0  0
   43.9253   -3.6789   26.8462 C   0  0  0  0  0  0  0  0  0  0  0  0
   44.2211   -3.8449   24.4031 C   0  0  0  0  0  0  0  0  0  0  0  0
   43.8363   -5.1049   24.3578 N   0  0  0  0  0  0  0  0  0  0  0  0
   44.8894   -3.3169   23.4089 N   0  0  0  0  0  0  0  0  0  0  0  0
   43.2459   -1.1063   29.1667 N   0  3  0  0  0  0  0  0  0  0  0  0
   43.6025   -3.2810   29.3598 C   0  0  0  0  0  0  0  0  0  0  0  0
   43.3230   -2.1357   30.0732 C   0  0  2  0  0  0  0  0  0  0  0  0
   43.0991   -1.9623   31.4990 C   0  0  1  0  0  0  0  0  0  0  0  0
   42.8722   -3.1032   32.2817 C   0  0  0  0  0  0  0  0  0  0  0  0
   42.6565   -3.0017   33.6459 C   0  0  0  0  0  0  0  0  0  0  0  0
   42.6701   -1.7481   34.2447 C   0  0  0  0  0  0  0  0  0  0  0  0
   42.9044   -0.5812   33.4945 C   0  0  2  0  0  0  0  0  0  0  0  0
   43.1077   -0.7032   32.1159 C   0  0  1  0  0  0  0  0  0  0  0  0
   43.3249    0.4322   31.3632 O   0  0  0  0  0  0  0  0  0  0  0  0
   43.0133    0.6949   34.1983 C   0  0  0  0  0  0  0  0  0  0  0  0
   44.2094    1.4288   34.1437 C   0  0  0  0  0  0  0  0  0  0  0  0
   44.3606    2.5942   34.8883 C   0  0  0  0  0  0  0  0  0  0  0  0
   43.3182    3.0370   35.6993 C   0  0  0  0  0  0  0  0  0  0  0  0
   42.1211    2.3257   35.7571 C   0  0  0  0  0  0  0  0  0  0  0  0
   41.9674    1.1621   35.0071 C   0  0  0  0  0  0  0  0  0  0  0  0
   43.7342   -0.7493   24.0614 Cl  0  0  0  0  0  0  0  0  0  0  0  0
   43.3713    0.2030   26.6656 H   0  0  0  0  0  0  0  0  0  0  0  0
   44.1030   -4.7436   26.9620 H   0  0  0  0  0  0  0  0  0  0  0  0
   44.0323   -5.6955   23.5636 H   0  0  0  0  0  0  0  0  0  0  0  0
   43.3131   -5.5241   25.1153 H   0  0  0  0  0  0  0  0  0  0  0  0
   45.1149   -3.8212   22.5551 H   0  0  0  0  0  0  0  0  0  0  0  0
   43.0239   -0.1473   29.4111 H   0  0  0  0  0  0  0  0  0  0  0  0
   43.7193   -4.2733   29.7766 H   0  0  0  0  0  0  0  0  0  0  0  0
   42.8490   -4.0940   31.8359 H   0  0  0  0  0  0  0  0  0  0  0  0
   42.4950   -3.8941   34.2428 H   0  0  0  0  0  0  0  0  0  0  0  0
   42.5220   -1.6804   35.3200 H   0  0  0  0  0  0  0  0  0  0  0  0
   44.2540    0.3863   31.0743 H   0  0  0  0  0  0  0  0  0  0  0  0
   45.0394    1.0729   33.5380 H   0  0  0  0  0  0  0  0  0  0  0  0
   45.2973    3.1422   34.8484 H   0  0  0  0  0  0  0  0  0  0  0  0
   43.4428    3.9368   36.2954 H   0  0  0  0  0  0  0  0  0  0  0  0
   41.3114    2.6674   36.3964 H   0  0  0  0  0  0  0  0  0  0  0  0
   41.0334    0.6060   35.0669 H   0  0  0  0  0  0  0  0  0  0  0  0
   45.1603   -2.3383   23.4549 H   0  0  0  0  0  0  0  0  0  0  0  0
  1  7  1  1  0  0  0
  1  6  1  0  0  0  0
  1  2  1  0  0  0  0
  2  3  1  0  0  0  0
  2 26  1  1  0  0  0
  3 27  1  0  0  0  0
  4  3  1  6  0  0  0
  4 10  1  0  0  0  0
  4  5  1  0  0  0  0
  5 11  1  1  0  0  0
  5  6  1  0  0  0  0
  6 28  1  0  0  0  0
  7  9  2  0  0  0  0
  7  8  1  0  0  0  0
  8 29  1  0  0  0  0
  8 30  1  0  0  0  0
  9 31  1  0  0  0  0
  9 43  1  0  0  0  0
 10 12  1  0  0  0  0
 10 32  1  0  0  0  0
 11 33  1  0  0  0  0
 12 11  1  6  0  0  0
 12 13  1  0  0  0  0
 13 18  1  0  0  0  0
 13 14  1  1  0  0  0
 14 15  1  0  0  0  0
 14 34  1  0  0  0  0
 15 16  1  0  0  0  0
 15 35  1  0  0  0  0
 16 17  1  0  0  0  0
 16 36  1  0  0  0  0
 17 18  1  0  0  0  0
 17 20  1  1  0  0  0
 18 19  1  1  0  0  0
 19 37  1  0  0  0  0
 20 25  1  0  0  0  0
 20 21  1  0  0  0  0
 21 22  1  0  0  0  0
 21 38  1  0  0  0  0
 22 23  1  0  0  0  0
 22 39  1  0  0  0  0
 23 24  1  0  0  0  0
 23 40  1  0  0  0  0
 24 25  1  0  0  0  0
 24 41  1  0  0  0  0
 25 42  1  0  0  0  0
M  CHG  1  10   1
M  END
$$$$
