137
 OpenBabel04041915273D

 38 38  0  0  1  0  0  0  0  0999 V2000
   -6.3090  -23.0330   27.9745 P   0  0  0  0  0  0  0  0  0  0  0  0
   -4.9644  -22.7455   27.2996 O   0  0  0  0  0  0  0  0  0  0  0  0
   -7.5060  -22.5187   27.1863 O   0  0  0  0  0  0  0  0  0  0  0  0
   -6.4103  -24.4462   28.5055 O   0  0  0  0  0  0  0  0  0  0  0  0
   -6.3058  -22.0592   29.2943 O   0  0  0  0  0  0  0  0  0  0  0  0
   -5.1167  -21.9571   30.0510 C   0  0  0  0  0  0  0  0  0  0  0  0
   -5.3989  -21.2125   31.3743 C   0  0  1  0  0  0  0  0  0  0  0  0
   -5.4998  -19.7902   31.1387 O   0  0  0  0  0  0  0  0  0  0  0  0
   -6.6667  -21.7237   32.0826 C   0  0  1  0  0  0  0  0  0  0  0  0
   -6.4390  -23.0282   32.6234 O   0  0  0  0  0  0  0  0  0  0  0  0
   -7.1371  -20.7961   33.2195 C   0  0  2  0  0  0  0  0  0  0  0  0
   -6.0823  -20.4736   34.1580 O   0  0  0  0  0  0  0  0  0  0  0  0
   -8.2851  -21.4125   34.0218 C   0  0  0  0  0  0  0  0  0  0  0  0
   -9.3821  -21.8006   33.1622 N   0  0  0  0  0  0  0  0  0  0  0  0
  -11.5904  -22.8417   33.0226 C   0  0  0  0  0  0  0  0  0  0  0  0
  -10.6726  -21.9925   33.6556 C   0  0  0  0  0  0  0  0  0  0  0  0
  -11.1517  -21.1968   34.7265 C   0  0  0  0  0  0  0  0  0  0  0  0
  -12.4423  -21.1957   35.1557 C   0  0  0  0  0  0  0  0  0  0  0  0
  -13.3342  -21.9923   34.4918 C   0  0  0  0  0  0  0  0  0  0  0  0
  -12.9169  -22.8218   33.4468 C   0  0  0  0  0  0  0  0  0  0  0  0
  -11.2234  -23.8434   31.9236 C   0  0  0  0  0  0  0  0  0  0  0  0
  -10.0137  -23.8920   31.5719 O   0  0  0  0  0  0  0  0  0  0  0  0
  -12.1672  -24.5992   31.5050 O   0  0  0  0  0  0  0  0  0  0  0  0
   -4.4100  -21.3649   29.4617 H   0  0  0  0  0  0  0  0  0  0  0  0
   -4.6864  -22.9422   30.2548 H   0  0  0  0  0  0  0  0  0  0  0  0
   -4.5365  -21.3581   32.0350 H   0  0  0  0  0  0  0  0  0  0  0  0
   -6.1970  -19.7246   30.4539 H   0  0  0  0  0  0  0  0  0  0  0  0
   -7.4860  -21.7779   31.3535 H   0  0  0  0  0  0  0  0  0  0  0  0
   -5.6903  -22.9556   33.2270 H   0  0  0  0  0  0  0  0  0  0  0  0
   -7.4918  -19.8494   32.7905 H   0  0  0  0  0  0  0  0  0  0  0  0
   -6.4574  -19.7615   34.7112 H   0  0  0  0  0  0  0  0  0  0  0  0
   -8.5862  -20.6047   34.6973 H   0  0  0  0  0  0  0  0  0  0  0  0
   -7.9462  -22.2169   34.6887 H   0  0  0  0  0  0  0  0  0  0  0  0
   -9.1510  -22.5131   32.4215 H   0  0  0  0  0  0  0  0  0  0  0  0
  -10.4385  -20.5362   35.2355 H   0  0  0  0  0  0  0  0  0  0  0  0
  -12.7184  -20.5583   35.9732 H   0  0  0  0  0  0  0  0  0  0  0  0
  -14.3639  -22.0010   34.7890 H   0  0  0  0  0  0  0  0  0  0  0  0
  -13.6542  -23.4458   32.9443 H   0  0  0  0  0  0  0  0  0  0  0  0
  1  5  1  0  0  0  0
  1  4  2  0  0  0  0
  1  3  1  0  0  0  0
  1  2  1  0  0  0  0
  5  6  1  0  0  0  0
  6  7  1  0  0  0  0
  6 24  1  0  0  0  0
  6 25  1  0  0  0  0
  7  9  1  0  0  0  0
  7  8  1  0  0  0  0
  7 26  1  1  0  0  0
  8 27  1  0  0  0  0
  9 11  1  0  0  0  0
  9 10  1  0  0  0  0
  9 28  1  6  0  0  0
 10 29  1  0  0  0  0
 11 13  1  0  0  0  0
 11 12  1  0  0  0  0
 11 30  1  6  0  0  0
 12 31  1  0  0  0  0
 13 14  1  0  0  0  0
 13 32  1  0  0  0  0
 13 33  1  0  0  0  0
 14 16  1  0  0  0  0
 14 34  1  0  0  0  0
 15 16  2  0  0  0  0
 15 20  1  0  0  0  0
 15 21  1  0  0  0  0
 16 17  1  0  0  0  0
 17 18  2  0  0  0  0
 17 35  1  0  0  0  0
 18 19  1  0  0  0  0
 18 36  1  0  0  0  0
 19 20  2  0  0  0  0
 19 37  1  0  0  0  0
 20 38  1  0  0  0  0
 21 23  2  0  0  0  0
 21 22  1  0  0  0  0
M  END
$$$$
