13P
 OpenBabel04041913553D

 15 14  0  0  0  0  0  0  0  0999 V2000
   23.0241   27.2085   23.7030 P   0  0  0  0  0  0  0  0  0  0  0  0
   23.3349   25.9943   24.5592 O   0  0  0  0  0  0  0  0  0  0  0  0
   21.6396   27.2173   23.0773 O   0  0  0  0  0  0  0  0  0  0  0  0
   24.1475   27.5968   22.7489 O   0  0  0  0  0  0  0  0  0  0  0  0
   22.9542   28.4305   24.8029 O   0  0  0  0  0  0  0  0  0  0  0  0
   23.4144   29.6928   24.4115 C   0  0  0  0  0  0  0  0  0  0  0  0
   24.5457   30.1701   25.3020 C   0  0  0  0  0  0  0  0  0  0  0  0
   24.5717   30.0485   26.5365 O   0  0  0  0  0  0  0  0  0  0  0  0
   25.5986   31.0905   24.6588 C   0  0  0  0  0  0  0  0  0  0  0  0
   25.8274   30.9100   23.2842 O   0  0  0  0  0  0  0  0  0  0  0  0
   22.6015   30.4166   24.5332 H   0  0  0  0  0  0  0  0  0  0  0  0
   23.7026   29.7409   23.3583 H   0  0  0  0  0  0  0  0  0  0  0  0
   26.5379   30.9508   25.2006 H   0  0  0  0  0  0  0  0  0  0  0  0
   25.2658   32.1207   24.7934 H   0  0  0  0  0  0  0  0  0  0  0  0
   26.7132   31.2303   23.0749 H   0  0  0  0  0  0  0  0  0  0  0  0
  1  2  2  0  0  0  0
  1  3  1  0  0  0  0
  1  4  1  0  0  0  0
  1  5  1  0  0  0  0
  5  6  1  0  0  0  0
  6  7  1  0  0  0  0
  6 11  1  0  0  0  0
  6 12  1  0  0  0  0
  7  8  2  0  0  0  0
  7  9  1  0  0  0  0
  9 10  1  0  0  0  0
  9 13  1  0  0  0  0
  9 14  1  0  0  0  0
 10 15  1  0  0  0  0
M  END
$$$$
