146
 OpenBabel04041916363D

106114  0  0  1  0  0  0  0  0999 V2000
   -8.8646   15.2941   27.9283 C   0  0  0  0  0  0  0  0  0  0  0  0
   -9.4850   14.7687   30.1828 C   0  0  0  0  0  0  0  0  0  0  0  0
  -10.8753   16.4506   28.9597 C   0  0  1  0  0  0  0  0  0  0  0  0
  -10.6285   17.9381   28.6689 C   0  0  1  0  0  0  0  0  0  0  0  0
  -10.1998   18.2059   27.2349 C   0  0  2  0  0  0  0  0  0  0  0  0
   -8.8194   17.6240   26.9107 C   0  0  1  0  0  0  0  0  0  0  0  0
   -8.1433   15.5684   25.6690 C   0  0  0  0  0  0  0  0  0  0  0  0
   -9.4245   15.5219   31.4870 C   0  0  0  0  0  0  0  0  0  0  0  0
  -10.0717   15.0000   32.6129 C   0  0  0  0  0  0  0  0  0  0  0  0
  -10.0226   15.6727   33.8404 C   0  0  0  0  0  0  0  0  0  0  0  0
   -9.3376   16.8954   33.9206 C   0  0  0  0  0  0  0  0  0  0  0  0
   -8.6816   17.4187   32.8065 C   0  0  0  0  0  0  0  0  0  0  0  0
   -8.7067   16.7173   31.6023 C   0  0  0  0  0  0  0  0  0  0  0  0
  -10.6721   15.1252   35.0684 C   0  0  0  0  0  0  0  0  0  0  0  0
  -11.3903   13.0787   36.1371 C   0  0  0  0  0  0  0  0  0  0  0  0
  -12.7259   12.6406   39.4471 C   0  0  0  0  0  0  0  0  0  0  0  0
  -12.9473   11.3878   40.0332 C   0  0  0  0  0  0  0  0  0  0  0  0
  -12.6541   10.2029   39.3531 C   0  0  0  0  0  0  0  0  0  0  0  0
  -12.1388   10.2334   38.0516 C   0  0  0  0  0  0  0  0  0  0  0  0
  -11.9209   11.4786   37.4442 C   0  0  0  0  0  0  0  0  0  0  0  0
  -12.2038   12.6428   38.1523 C   0  0  0  0  0  0  0  0  0  0  0  0
  -11.9795   15.8313   28.0649 C   0  0  0  0  0  0  0  0  0  0  0  0
  -12.5366   14.5413   28.6185 C   0  0  0  0  0  0  0  0  0  0  0  0
  -12.1536   13.3104   28.0707 C   0  0  0  0  0  0  0  0  0  0  0  0
  -12.6038   12.1186   28.6381 C   0  0  0  0  0  0  0  0  0  0  0  0
  -13.4419   12.1474   29.7516 C   0  0  0  0  0  0  0  0  0  0  0  0
  -13.8430   13.3675   30.2921 C   0  0  0  0  0  0  0  0  0  0  0  0
  -13.3964   14.5609   29.7261 C   0  0  0  0  0  0  0  0  0  0  0  0
   -7.6985   18.2322   27.7914 C   0  0  0  0  0  0  0  0  0  0  0  0
   -6.3354   18.1624   27.1472 C   0  0  0  0  0  0  0  0  0  0  0  0
   -6.0148   19.0182   26.0793 C   0  0  0  0  0  0  0  0  0  0  0  0
   -4.7719   18.9240   25.4564 C   0  0  0  0  0  0  0  0  0  0  0  0
   -3.8397   17.9853   25.8948 C   0  0  0  0  0  0  0  0  0  0  0  0
   -4.1479   17.1458   26.9633 C   0  0  0  0  0  0  0  0  0  0  0  0
   -5.3896   17.2345   27.5914 C   0  0  0  0  0  0  0  0  0  0  0  0
   -8.8387   15.9044   24.3754 C   0  0  0  0  0  0  0  0  0  0  0  0
   -8.0545   16.2400   23.2685 C   0  0  0  0  0  0  0  0  0  0  0  0
   -8.6433   16.5148   22.0309 C   0  0  0  0  0  0  0  0  0  0  0  0
  -10.0408   16.4701   21.9176 C   0  0  0  0  0  0  0  0  0  0  0  0
  -10.8307   16.1351   23.0172 C   0  0  0  0  0  0  0  0  0  0  0  0
  -10.2289   15.8374   24.2364 C   0  0  0  0  0  0  0  0  0  0  0  0
   -7.8160   16.8247   20.8242 C   0  0  0  0  0  0  0  0  0  0  0  0
   -5.6222   16.5467   19.8493 C   0  0  0  0  0  0  0  0  0  0  0  0
   -4.7289   16.8706   16.3869 C   0  0  0  0  0  0  0  0  0  0  0  0
   -3.4755   16.5188   15.8732 C   0  0  0  0  0  0  0  0  0  0  0  0
   -2.4554   16.0470   16.7030 C   0  0  0  0  0  0  0  0  0  0  0  0
   -2.6583   15.9055   18.0817 C   0  0  0  0  0  0  0  0  0  0  0  0
   -3.9123   16.2413   18.6132 C   0  0  0  0  0  0  0  0  0  0  0  0
   -4.9065   16.7157   17.7621 C   0  0  0  0  0  0  0  0  0  0  0  0
   -9.6242   15.6535   29.0200 N   0  0  0  0  0  0  0  0  0  0  0  0
   -8.8054   16.1401   26.8406 N   0  0  0  0  0  0  0  0  0  0  0  0
  -10.9172   13.7687   35.0550 N   0  0  0  0  0  0  0  0  0  0  0  0
  -11.8470   13.6512   37.2944 N   0  3  0  0  0  0  0  0  0  0  0  0
  -11.4447   11.7693   36.1894 N   0  0  0  0  0  0  0  0  0  0  0  0
   -6.4759   16.5075   20.9154 N   0  0  0  0  0  0  0  0  0  0  0  0
   -5.9768   16.9360   18.5867 N   0  3  0  0  0  0  0  0  0  0  0  0
   -4.3697   16.1603   19.9057 N   0  0  0  0  0  0  0  0  0  0  0  0
   -8.2488   14.2249   27.9217 O   0  0  0  0  0  0  0  0  0  0  0  0
  -11.8307   18.6864   28.9281 O   0  0  0  0  0  0  0  0  0  0  0  0
  -10.1739   19.6320   27.0268 O   0  0  0  0  0  0  0  0  0  0  0  0
  -10.9121   15.8669   36.0182 O   0  0  0  0  0  0  0  0  0  0  0  0
   -8.3501   17.2996   19.8243 O   0  0  0  0  0  0  0  0  0  0  0  0
   -8.5782   14.1553   30.1284 H   0  0  0  0  0  0  0  0  0  0  0  0
  -10.3289   14.0721   30.1766 H   0  0  0  0  0  0  0  0  0  0  0  0
  -11.2923   16.4511   29.9755 H   0  0  0  0  0  0  0  0  0  0  0  0
   -9.8833   18.3298   29.3702 H   0  0  0  0  0  0  0  0  0  0  0  0
  -10.9408   17.8179   26.5274 H   0  0  0  0  0  0  0  0  0  0  0  0
   -8.6220   17.9848   25.8921 H   0  0  0  0  0  0  0  0  0  0  0  0
   -8.0827   14.4751   25.7155 H   0  0  0  0  0  0  0  0  0  0  0  0
   -7.1104   15.9324   25.6624 H   0  0  0  0  0  0  0  0  0  0  0  0
  -10.6241   14.0715   32.4969 H   0  0  0  0  0  0  0  0  0  0  0  0
   -9.2962   17.4424   34.8601 H   0  0  0  0  0  0  0  0  0  0  0  0
   -8.1499   18.3599   32.8676 H   0  0  0  0  0  0  0  0  0  0  0  0
   -8.1799   17.1239   30.7461 H   0  0  0  0  0  0  0  0  0  0  0  0
  -12.9505   13.5590   39.9778 H   0  0  0  0  0  0  0  0  0  0  0  0
  -13.3540   11.3369   41.0414 H   0  0  0  0  0  0  0  0  0  0  0  0
  -12.8291    9.2443   39.8361 H   0  0  0  0  0  0  0  0  0  0  0  0
  -11.9079    9.3182   37.5178 H   0  0  0  0  0  0  0  0  0  0  0  0
  -11.6070   15.6524   27.0553 H   0  0  0  0  0  0  0  0  0  0  0  0
  -12.8172   16.5316   27.9540 H   0  0  0  0  0  0  0  0  0  0  0  0
  -11.4801   13.2700   27.2169 H   0  0  0  0  0  0  0  0  0  0  0  0
  -12.2907   11.1669   28.2173 H   0  0  0  0  0  0  0  0  0  0  0  0
  -13.7827   11.2169   30.1980 H   0  0  0  0  0  0  0  0  0  0  0  0
  -14.4999   13.3889   31.1579 H   0  0  0  0  0  0  0  0  0  0  0  0
  -13.7092   15.5071   30.1634 H   0  0  0  0  0  0  0  0  0  0  0  0
   -7.6577   17.7433   28.7678 H   0  0  0  0  0  0  0  0  0  0  0  0
   -7.8985   19.2908   27.9991 H   0  0  0  0  0  0  0  0  0  0  0  0
   -6.7337   19.7524   25.7282 H   0  0  0  0  0  0  0  0  0  0  0  0
   -4.5301   19.5832   24.6261 H   0  0  0  0  0  0  0  0  0  0  0  0
   -2.8720   17.9140   25.4067 H   0  0  0  0  0  0  0  0  0  0  0  0
   -3.4174   16.4150   27.3079 H   0  0  0  0  0  0  0  0  0  0  0  0
   -5.6187   16.5580   28.4148 H   0  0  0  0  0  0  0  0  0  0  0  0
   -6.9805   16.2864   23.4158 H   0  0  0  0  0  0  0  0  0  0  0  0
  -10.5212   16.6811   20.9641 H   0  0  0  0  0  0  0  0  0  0  0  0
  -11.9161   16.0969   22.9279 H   0  0  0  0  0  0  0  0  0  0  0  0
  -10.8503   15.5585   25.0814 H   0  0  0  0  0  0  0  0  0  0  0  0
   -5.5218   17.2327   15.7426 H   0  0  0  0  0  0  0  0  0  0  0  0
   -3.2955   16.6118   14.8042 H   0  0  0  0  0  0  0  0  0  0  0  0
   -1.4925   15.7780   16.2745 H   0  0  0  0  0  0  0  0  0  0  0  0
   -1.8723   15.5299   18.7271 H   0  0  0  0  0  0  0  0  0  0  0  0
  -10.6259   13.1693   34.2977 H   0  0  0  0  0  0  0  0  0  0  0  0
  -11.8856   14.6489   37.4586 H   0  0  0  0  0  0  0  0  0  0  0  0
   -6.0530   16.1040   21.7366 H   0  0  0  0  0  0  0  0  0  0  0  0
   -6.9008   17.2628   18.3343 H   0  0  0  0  0  0  0  0  0  0  0  0
  -11.5545   19.6186   29.0060 H   0  0  0  0  0  0  0  0  0  0  0  0
  -11.1045   19.9185   26.9817 H   0  0  0  0  0  0  0  0  0  0  0  0
  1 58  2  0  0  0  0
  1 51  1  0  0  0  0
  1 50  1  0  0  0  0
  2 50  1  0  0  0  0
  2  8  1  0  0  0  0
  2 63  1  0  0  0  0
  2 64  1  0  0  0  0
  3 50  1  0  0  0  0
  3 22  1  0  0  0  0
  3  4  1  0  0  0  0
  3 65  1  1  0  0  0
  4 59  1  0  0  0  0
  4  5  1  0  0  0  0
  4 66  1  1  0  0  0
  5 60  1  0  0  0  0
  5  6  1  0  0  0  0
  5 67  1  6  0  0  0
  6 51  1  0  0  0  0
  6 29  1  0  0  0  0
  6 68  1  6  0  0  0
  7 51  1  0  0  0  0
  7 36  1  0  0  0  0
  7 69  1  0  0  0  0
  7 70  1  0  0  0  0
  8 13  2  0  0  0  0
  8  9  1  0  0  0  0
  9 10  2  0  0  0  0
  9 71  1  0  0  0  0
 10 14  1  0  0  0  0
 10 11  1  0  0  0  0
 11 12  2  0  0  0  0
 11 72  1  0  0  0  0
 12 13  1  0  0  0  0
 12 73  1  0  0  0  0
 13 74  1  0  0  0  0
 14 61  2  0  0  0  0
 14 52  1  0  0  0  0
 15 52  1  0  0  0  0
 15 53  2  0  0  0  0
 15 54  1  0  0  0  0
 16 17  2  0  0  0  0
 16 21  1  0  0  0  0
 16 75  1  0  0  0  0
 17 18  1  0  0  0  0
 17 76  1  0  0  0  0
 18 19  2  0  0  0  0
 18 77  1  0  0  0  0
 19 20  1  0  0  0  0
 19 78  1  0  0  0  0
 20 54  1  0  0  0  0
 20 21  2  0  0  0  0
 21 53  1  0  0  0  0
 22 23  1  0  0  0  0
 22 79  1  0  0  0  0
 22 80  1  0  0  0  0
 23 28  2  0  0  0  0
 23 24  1  0  0  0  0
 24 25  2  0  0  0  0
 24 81  1  0  0  0  0
 25 26  1  0  0  0  0
 25 82  1  0  0  0  0
 26 27  2  0  0  0  0
 26 83  1  0  0  0  0
 27 28  1  0  0  0  0
 27 84  1  0  0  0  0
 28 85  1  0  0  0  0
 29 30  1  0  0  0  0
 29 86  1  0  0  0  0
 29 87  1  0  0  0  0
 30 35  2  0  0  0  0
 30 31  1  0  0  0  0
 31 32  2  0  0  0  0
 31 88  1  0  0  0  0
 32 33  1  0  0  0  0
 32 89  1  0  0  0  0
 33 34  2  0  0  0  0
 33 90  1  0  0  0  0
 34 35  1  0  0  0  0
 34 91  1  0  0  0  0
 35 92  1  0  0  0  0
 36 41  2  0  0  0  0
 36 37  1  0  0  0  0
 37 38  2  0  0  0  0
 37 93  1  0  0  0  0
 38 42  1  0  0  0  0
 38 39  1  0  0  0  0
 39 40  2  0  0  0  0
 39 94  1  0  0  0  0
 40 41  1  0  0  0  0
 40 95  1  0  0  0  0
 41 96  1  0  0  0  0
 42 55  1  0  0  0  0
 42 62  2  0  0  0  0
 43 55  1  0  0  0  0
 43 56  2  0  0  0  0
 43 57  1  0  0  0  0
 44 45  2  0  0  0  0
 44 49  1  0  0  0  0
 44 97  1  0  0  0  0
 45 46  1  0  0  0  0
 45 98  1  0  0  0  0
 46 47  2  0  0  0  0
 46 99  1  0  0  0  0
 47 48  1  0  0  0  0
 47100  1  0  0  0  0
 48 57  1  0  0  0  0
 48 49  2  0  0  0  0
 49 56  1  0  0  0  0
 52101  1  0  0  0  0
 53102  1  0  0  0  0
 55103  1  0  0  0  0
 56104  1  0  0  0  0
 59105  1  0  0  0  0
 60106  1  0  0  0  0
M  CHG  2  53   1  56   1
M  END
$$$$
