146
 OpenBabel04041914053D

106114  0  0  1  0  0  0  0  0999 V2000
   -9.0339   15.5935   27.8559 C   0  0  0  0  0  0  0  0  0  0  0  0
   -9.7252   15.0782   30.1171 C   0  0  0  0  0  0  0  0  0  0  0  0
  -11.0644   16.7392   28.8415 C   0  0  1  0  0  0  0  0  0  0  0  0
  -10.8288   18.2322   28.5838 C   0  0  1  0  0  0  0  0  0  0  0  0
  -10.3530   18.5089   27.1656 C   0  0  2  0  0  0  0  0  0  0  0  0
   -8.9558   17.9384   26.9003 C   0  0  1  0  0  0  0  0  0  0  0  0
   -8.2174   15.9405   25.6121 C   0  0  0  0  0  0  0  0  0  0  0  0
   -9.6949   15.8278   31.4321 C   0  0  0  0  0  0  0  0  0  0  0  0
  -10.4251   15.3352   32.5263 C   0  0  0  0  0  0  0  0  0  0  0  0
  -10.3431   15.9477   33.7884 C   0  0  0  0  0  0  0  0  0  0  0  0
   -9.5546   17.1007   33.9284 C   0  0  0  0  0  0  0  0  0  0  0  0
   -8.8380   17.6074   32.8386 C   0  0  0  0  0  0  0  0  0  0  0  0
   -8.8969   16.9622   31.6065 C   0  0  0  0  0  0  0  0  0  0  0  0
  -11.0067   15.3659   34.9976 C   0  0  0  0  0  0  0  0  0  0  0  0
  -11.6193   13.2218   36.0039 C   0  0  0  0  0  0  0  0  0  0  0  0
  -12.3537   12.4180   39.4384 C   0  0  0  0  0  0  0  0  0  0  0  0
  -12.5625   11.1160   39.9077 C   0  0  0  0  0  0  0  0  0  0  0  0
  -12.5100   10.0169   39.0500 C   0  0  0  0  0  0  0  0  0  0  0  0
  -12.2443   10.1950   37.6826 C   0  0  0  0  0  0  0  0  0  0  0  0
  -12.0285   11.4895   37.1943 C   0  0  0  0  0  0  0  0  0  0  0  0
  -12.0852   12.5702   38.0721 C   0  0  0  0  0  0  0  0  0  0  0  0
  -12.1040   16.1127   27.8743 C   0  0  0  0  0  0  0  0  0  0  0  0
  -12.8284   14.9281   28.4672 C   0  0  0  0  0  0  0  0  0  0  0  0
  -12.4960   13.6225   28.0868 C   0  0  0  0  0  0  0  0  0  0  0  0
  -13.1402   12.5348   28.6775 C   0  0  0  0  0  0  0  0  0  0  0  0
  -14.1212   12.7437   29.6459 C   0  0  0  0  0  0  0  0  0  0  0  0
  -14.4657   14.0403   30.0217 C   0  0  0  0  0  0  0  0  0  0  0  0
  -13.8237   15.1287   29.4329 C   0  0  0  0  0  0  0  0  0  0  0  0
   -7.8916   18.5134   27.8739 C   0  0  0  0  0  0  0  0  0  0  0  0
   -6.4819   18.3452   27.3800 C   0  0  0  0  0  0  0  0  0  0  0  0
   -6.0064   19.1247   26.3194 C   0  0  0  0  0  0  0  0  0  0  0  0
   -4.7298   18.9108   25.8080 C   0  0  0  0  0  0  0  0  0  0  0  0
   -3.9158   17.9249   26.3613 C   0  0  0  0  0  0  0  0  0  0  0  0
   -4.3716   17.1569   27.4324 C   0  0  0  0  0  0  0  0  0  0  0  0
   -5.6499   17.3637   27.9435 C   0  0  0  0  0  0  0  0  0  0  0  0
   -8.8601   16.3165   24.2942 C   0  0  0  0  0  0  0  0  0  0  0  0
   -8.0419   16.6460   23.2019 C   0  0  0  0  0  0  0  0  0  0  0  0
   -8.5908   16.9538   21.9506 C   0  0  0  0  0  0  0  0  0  0  0  0
   -9.9912   16.9186   21.8053 C   0  0  0  0  0  0  0  0  0  0  0  0
  -10.8114   16.5939   22.8843 C   0  0  0  0  0  0  0  0  0  0  0  0
  -10.2493   16.2895   24.1221 C   0  0  0  0  0  0  0  0  0  0  0  0
   -7.7316   17.3053   20.7657 C   0  0  0  0  0  0  0  0  0  0  0  0
   -5.6002   16.8113   19.7124 C   0  0  0  0  0  0  0  0  0  0  0  0
   -4.7287   17.2457   16.2438 C   0  0  0  0  0  0  0  0  0  0  0  0
   -3.6712   16.5850   15.6067 C   0  0  0  0  0  0  0  0  0  0  0  0
   -2.8277   15.7249   16.3142 C   0  0  0  0  0  0  0  0  0  0  0  0
   -3.0155   15.5128   17.6907 C   0  0  0  0  0  0  0  0  0  0  0  0
   -4.0808   16.1616   18.3418 C   0  0  0  0  0  0  0  0  0  0  0  0
   -4.9120   17.0002   17.6030 C   0  0  0  0  0  0  0  0  0  0  0  0
   -9.8129   15.9585   28.9467 N   0  0  0  0  0  0  0  0  0  0  0  0
   -8.9301   16.4650   26.7879 N   0  0  0  0  0  0  0  0  0  0  0  0
  -11.2673   14.0119   34.9326 N   0  0  0  0  0  0  0  0  0  0  0  0
  -11.8272   13.6653   37.2816 N   0  3  0  0  0  0  0  0  0  0  0  0
  -11.7457   11.9212   35.9162 N   0  0  0  0  0  0  0  0  0  0  0  0
   -6.4196   16.8640   20.8155 N   0  0  0  0  0  0  0  0  0  0  0  0
   -5.8490   17.4289   18.5166 N   0  3  0  0  0  0  0  0  0  0  0  0
   -4.4916   16.1035   19.6576 N   0  0  0  0  0  0  0  0  0  0  0  0
   -8.4463   14.5075   27.8501 O   0  0  0  0  0  0  0  0  0  0  0  0
  -12.0584   18.9434   28.8117 O   0  0  0  0  0  0  0  0  0  0  0  0
  -10.3215   19.9305   26.9500 O   0  0  0  0  0  0  0  0  0  0  0  0
  -11.2344   16.0682   35.9889 O   0  0  0  0  0  0  0  0  0  0  0  0
   -8.2243   17.9083   19.8156 O   0  0  0  0  0  0  0  0  0  0  0  0
   -8.8289   14.4488   30.0841 H   0  0  0  0  0  0  0  0  0  0  0  0
  -10.5830   14.3981   30.0859 H   0  0  0  0  0  0  0  0  0  0  0  0
  -11.5279   16.7202   29.8346 H   0  0  0  0  0  0  0  0  0  0  0  0
  -10.1148   18.6286   29.3153 H   0  0  0  0  0  0  0  0  0  0  0  0
  -11.0651   18.1068   26.4359 H   0  0  0  0  0  0  0  0  0  0  0  0
   -8.6928   18.3372   25.9106 H   0  0  0  0  0  0  0  0  0  0  0  0
   -8.1372   14.8500   25.6332 H   0  0  0  0  0  0  0  0  0  0  0  0
   -7.1910   16.3274   25.6487 H   0  0  0  0  0  0  0  0  0  0  0  0
  -11.0530   14.4663   32.3661 H   0  0  0  0  0  0  0  0  0  0  0  0
   -9.4640   17.5952   34.8926 H   0  0  0  0  0  0  0  0  0  0  0  0
   -8.2119   18.4903   32.9522 H   0  0  0  0  0  0  0  0  0  0  0  0
   -8.3091   17.3487   30.7807 H   0  0  0  0  0  0  0  0  0  0  0  0
  -12.3966   13.2700   40.1096 H   0  0  0  0  0  0  0  0  0  0  0  0
  -12.7702   10.9562   40.9646 H   0  0  0  0  0  0  0  0  0  0  0  0
  -12.6748    9.0132   39.4396 H   0  0  0  0  0  0  0  0  0  0  0  0
  -12.2031    9.3380   37.0158 H   0  0  0  0  0  0  0  0  0  0  0  0
  -11.6339   15.8065   26.9383 H   0  0  0  0  0  0  0  0  0  0  0  0
  -12.8651   16.8535   27.5970 H   0  0  0  0  0  0  0  0  0  0  0  0
  -11.7229   13.4419   27.3424 H   0  0  0  0  0  0  0  0  0  0  0  0
  -12.8726   11.5226   28.3849 H   0  0  0  0  0  0  0  0  0  0  0  0
  -14.6195   11.8946   30.1067 H   0  0  0  0  0  0  0  0  0  0  0  0
  -15.2334   14.2043   30.7732 H   0  0  0  0  0  0  0  0  0  0  0  0
  -14.0996   16.1377   29.7354 H   0  0  0  0  0  0  0  0  0  0  0  0
   -7.9764   18.0460   28.8549 H   0  0  0  0  0  0  0  0  0  0  0  0
   -8.0592   19.5858   28.0401 H   0  0  0  0  0  0  0  0  0  0  0  0
   -6.6387   19.8941   25.8780 H   0  0  0  0  0  0  0  0  0  0  0  0
   -4.3711   19.5093   24.9746 H   0  0  0  0  0  0  0  0  0  0  0  0
   -2.9198   17.7531   25.9579 H   0  0  0  0  0  0  0  0  0  0  0  0
   -3.7347   16.3885   27.8625 H   0  0  0  0  0  0  0  0  0  0  0  0
   -6.0023   16.7436   28.7628 H   0  0  0  0  0  0  0  0  0  0  0  0
   -6.9676   16.6666   23.3644 H   0  0  0  0  0  0  0  0  0  0  0  0
  -10.4477   17.1319   20.8398 H   0  0  0  0  0  0  0  0  0  0  0  0
  -11.8948   16.5653   22.7684 H   0  0  0  0  0  0  0  0  0  0  0  0
  -10.9003   16.0378   24.9506 H   0  0  0  0  0  0  0  0  0  0  0  0
   -5.3892   17.9109   15.6865 H   0  0  0  0  0  0  0  0  0  0  0  0
   -3.5112   16.7299   14.5439 H   0  0  0  0  0  0  0  0  0  0  0  0
   -2.0273   15.2085   15.7930 H   0  0  0  0  0  0  0  0  0  0  0  0
   -2.3616   14.8397   18.2341 H   0  0  0  0  0  0  0  0  0  0  0  0
  -11.0774   13.4740   34.1014 H   0  0  0  0  0  0  0  0  0  0  0  0
  -11.7695   14.6329   37.5708 H   0  0  0  0  0  0  0  0  0  0  0  0
   -6.0664   16.3296   21.5944 H   0  0  0  0  0  0  0  0  0  0  0  0
   -6.6365   18.0448   18.3440 H   0  0  0  0  0  0  0  0  0  0  0  0
  -11.8318   19.8894   28.8551 H   0  0  0  0  0  0  0  0  0  0  0  0
  -11.2458   20.2360   26.9435 H   0  0  0  0  0  0  0  0  0  0  0  0
  1 58  2  0  0  0  0
  1 51  1  0  0  0  0
  1 50  1  0  0  0  0
  2 50  1  0  0  0  0
  2  8  1  0  0  0  0
  2 63  1  0  0  0  0
  2 64  1  0  0  0  0
  3 50  1  0  0  0  0
  3 22  1  0  0  0  0
  3  4  1  0  0  0  0
  3 65  1  1  0  0  0
  4 59  1  0  0  0  0
  4  5  1  0  0  0  0
  4 66  1  1  0  0  0
  5 60  1  0  0  0  0
  5  6  1  0  0  0  0
  5 67  1  6  0  0  0
  6 51  1  0  0  0  0
  6 29  1  0  0  0  0
  6 68  1  6  0  0  0
  7 51  1  0  0  0  0
  7 36  1  0  0  0  0
  7 69  1  0  0  0  0
  7 70  1  0  0  0  0
  8 13  2  0  0  0  0
  8  9  1  0  0  0  0
  9 10  2  0  0  0  0
  9 71  1  0  0  0  0
 10 14  1  0  0  0  0
 10 11  1  0  0  0  0
 11 12  2  0  0  0  0
 11 72  1  0  0  0  0
 12 13  1  0  0  0  0
 12 73  1  0  0  0  0
 13 74  1  0  0  0  0
 14 61  2  0  0  0  0
 14 52  1  0  0  0  0
 15 52  1  0  0  0  0
 15 53  2  0  0  0  0
 15 54  1  0  0  0  0
 16 17  2  0  0  0  0
 16 21  1  0  0  0  0
 16 75  1  0  0  0  0
 17 18  1  0  0  0  0
 17 76  1  0  0  0  0
 18 19  2  0  0  0  0
 18 77  1  0  0  0  0
 19 20  1  0  0  0  0
 19 78  1  0  0  0  0
 20 54  1  0  0  0  0
 20 21  2  0  0  0  0
 21 53  1  0  0  0  0
 22 23  1  0  0  0  0
 22 79  1  0  0  0  0
 22 80  1  0  0  0  0
 23 28  2  0  0  0  0
 23 24  1  0  0  0  0
 24 25  2  0  0  0  0
 24 81  1  0  0  0  0
 25 26  1  0  0  0  0
 25 82  1  0  0  0  0
 26 27  2  0  0  0  0
 26 83  1  0  0  0  0
 27 28  1  0  0  0  0
 27 84  1  0  0  0  0
 28 85  1  0  0  0  0
 29 30  1  0  0  0  0
 29 86  1  0  0  0  0
 29 87  1  0  0  0  0
 30 35  2  0  0  0  0
 30 31  1  0  0  0  0
 31 32  2  0  0  0  0
 31 88  1  0  0  0  0
 32 33  1  0  0  0  0
 32 89  1  0  0  0  0
 33 34  2  0  0  0  0
 33 90  1  0  0  0  0
 34 35  1  0  0  0  0
 34 91  1  0  0  0  0
 35 92  1  0  0  0  0
 36 41  2  0  0  0  0
 36 37  1  0  0  0  0
 37 38  2  0  0  0  0
 37 93  1  0  0  0  0
 38 42  1  0  0  0  0
 38 39  1  0  0  0  0
 39 40  2  0  0  0  0
 39 94  1  0  0  0  0
 40 41  1  0  0  0  0
 40 95  1  0  0  0  0
 41 96  1  0  0  0  0
 42 55  1  0  0  0  0
 42 62  2  0  0  0  0
 43 55  1  0  0  0  0
 43 56  2  0  0  0  0
 43 57  1  0  0  0  0
 44 45  2  0  0  0  0
 44 49  1  0  0  0  0
 44 97  1  0  0  0  0
 45 46  1  0  0  0  0
 45 98  1  0  0  0  0
 46 47  2  0  0  0  0
 46 99  1  0  0  0  0
 47 48  1  0  0  0  0
 47100  1  0  0  0  0
 48 57  1  0  0  0  0
 48 49  2  0  0  0  0
 49 56  1  0  0  0  0
 52101  1  0  0  0  0
 53102  1  0  0  0  0
 55103  1  0  0  0  0
 56104  1  0  0  0  0
 59105  1  0  0  0  0
 60106  1  0  0  0  0
M  CHG  2  53   1  56   1
M  END
$$$$
