153
 OpenBabel04041915533D

 50 52  0  0  1  0  0  0  0  0999 V2000
    7.4005   33.2620   77.8631 N   0  0  0  0  0  0  0  0  0  0  0  0
    7.1593   32.8184   76.4079 C   0  0  2  0  0  0  0  0  0  0  0  0
    5.6671   32.9742   75.8250 C   0  0  0  0  0  0  0  0  0  0  0  0
    5.4518   32.5062   74.6821 O   0  0  0  0  0  0  0  0  0  0  0  0
    4.8527   33.6124   76.5725 O   0  0  0  0  0  0  0  0  0  0  0  0
    7.2436   34.6159   78.2237 C   0  0  0  0  0  0  0  0  0  0  0  0
    6.8860   34.9911   79.3739 O   0  0  0  0  0  0  0  0  0  0  0  0
    7.6542   35.7165   77.2839 C   0  0  0  0  0  0  0  0  0  0  0  0
    6.6482   36.4695   76.6411 C   0  0  0  0  0  0  0  0  0  0  0  0
    6.9781   37.5248   75.7691 C   0  0  0  0  0  0  0  0  0  0  0  0
    8.3243   37.8548   75.5590 C   0  0  0  0  0  0  0  0  0  0  0  0
    9.3443   37.1502   76.2161 C   0  0  0  0  0  0  0  0  0  0  0  0
    9.0064   36.0917   77.0880 C   0  0  0  0  0  0  0  0  0  0  0  0
    8.7317   39.1451   74.4860 Cl  0  0  0  0  0  0  0  0  0  0  0  0
   10.3251   35.2960   77.8826 Cl  0  0  0  0  0  0  0  0  0  0  0  0
    7.6846   31.3822   76.1028 C   0  0  0  0  0  0  0  0  0  0  0  0
    9.2015   31.1635   76.0265 C   0  0  0  0  0  0  0  0  0  0  0  0
    9.7177   29.8542   75.8484 C   0  0  0  0  0  0  0  0  0  0  0  0
   11.1057   29.6251   75.7657 C   0  0  0  0  0  0  0  0  0  0  0  0
   11.9949   30.7063   75.8625 C   0  0  0  0  0  0  0  0  0  0  0  0
   11.5022   32.0084   76.0377 C   0  0  0  0  0  0  0  0  0  0  0  0
   10.1189   32.2320   76.1127 C   0  0  0  0  0  0  0  0  0  0  0  0
    7.5616   32.2186   78.9338 C   0  0  0  0  0  0  0  0  0  0  0  0
    8.9187   32.2264   79.6896 C   0  0  0  0  0  0  0  0  0  0  0  0
    9.3061   33.3315   80.4745 C   0  0  0  0  0  0  0  0  0  0  0  0
   10.5341   33.3755   81.1750 C   0  0  0  0  0  0  0  0  0  0  0  0
   11.4154   32.2927   81.1364 C   0  0  0  0  0  0  0  0  0  0  0  0
   11.0482   31.1525   80.3955 C   0  0  0  0  0  0  0  0  0  0  0  0
    9.8085   31.1225   79.6794 C   0  0  0  0  0  0  0  0  0  0  0  0
   11.9718   29.9595   80.3262 C   0  0  0  0  0  0  0  0  0  0  0  0
   12.9753   30.1220   79.4202 F   0  0  0  0  0  0  0  0  0  0  0  0
   11.3347   28.8057   79.9786 F   0  0  0  0  0  0  0  0  0  0  0  0
   12.5871   29.6876   81.5146 F   0  0  0  0  0  0  0  0  0  0  0  0
    7.7499   33.5119   75.7982 H   0  0  0  0  0  0  0  0  0  0  0  0
    5.6021   36.2059   76.8029 H   0  0  0  0  0  0  0  0  0  0  0  0
    6.1865   38.0740   75.2586 H   0  0  0  0  0  0  0  0  0  0  0  0
   10.3861   37.4215   76.0458 H   0  0  0  0  0  0  0  0  0  0  0  0
    7.2551   31.0190   75.1642 H   0  0  0  0  0  0  0  0  0  0  0  0
    7.2982   30.6897   76.8548 H   0  0  0  0  0  0  0  0  0  0  0  0
    9.0371   29.0077   75.7723 H   0  0  0  0  0  0  0  0  0  0  0  0
   11.4875   28.6146   75.6264 H   0  0  0  0  0  0  0  0  0  0  0  0
   13.0692   30.5380   75.8014 H   0  0  0  0  0  0  0  0  0  0  0  0
   12.1873   32.8493   76.1145 H   0  0  0  0  0  0  0  0  0  0  0  0
    9.7554   33.2399   76.2487 H   0  0  0  0  0  0  0  0  0  0  0  0
    7.4704   31.2236   78.5048 H   0  0  0  0  0  0  0  0  0  0  0  0
    6.7407   32.2758   79.6626 H   0  0  0  0  0  0  0  0  0  0  0  0
    8.6552   34.1965   80.5338 H   0  0  0  0  0  0  0  0  0  0  0  0
   10.7915   34.2687   81.7475 H   0  0  0  0  0  0  0  0  0  0  0  0
   12.3620   32.3382   81.6808 H   0  0  0  0  0  0  0  0  0  0  0  0
    9.5630   30.2266   79.1119 H   0  0  0  0  0  0  0  0  0  0  0  0
  1  2  1  0  0  0  0
  1  6  1  0  0  0  0
  1 23  1  0  0  0  0
  2  3  1  0  0  0  0
  2 16  1  0  0  0  0
  2 34  1  6  0  0  0
  3  4  2  0  0  0  0
  3  5  1  0  0  0  0
  6  7  2  0  0  0  0
  6  8  1  0  0  0  0
  8  9  2  0  0  0  0
  8 13  1  0  0  0  0
  9 10  1  0  0  0  0
  9 35  1  0  0  0  0
 10 11  2  0  0  0  0
 10 36  1  0  0  0  0
 11 12  1  0  0  0  0
 11 14  1  0  0  0  0
 12 13  2  0  0  0  0
 12 37  1  0  0  0  0
 13 15  1  0  0  0  0
 16 17  1  0  0  0  0
 16 38  1  0  0  0  0
 16 39  1  0  0  0  0
 17 18  2  0  0  0  0
 17 22  1  0  0  0  0
 18 19  1  0  0  0  0
 18 40  1  0  0  0  0
 19 20  2  0  0  0  0
 19 41  1  0  0  0  0
 20 21  1  0  0  0  0
 20 42  1  0  0  0  0
 21 22  2  0  0  0  0
 21 43  1  0  0  0  0
 22 44  1  0  0  0  0
 23 24  1  0  0  0  0
 23 45  1  0  0  0  0
 23 46  1  0  0  0  0
 24 25  2  0  0  0  0
 24 29  1  0  0  0  0
 25 26  1  0  0  0  0
 25 47  1  0  0  0  0
 26 27  2  0  0  0  0
 26 48  1  0  0  0  0
 27 28  1  0  0  0  0
 27 49  1  0  0  0  0
 28 29  2  0  0  0  0
 28 30  1  0  0  0  0
 29 50  1  0  0  0  0
 30 31  1  0  0  0  0
 30 32  1  0  0  0  0
 30 33  1  0  0  0  0
M  END
$$$$
