165
 OpenBabel04041916493D

 78 82  0  0  1  0  0  0  0  0999 V2000
   10.3647  -13.8242   15.0007 N   0  0  0  0  0  0  0  0  0  0  0  0
   10.6031  -12.5178   15.6512 C   0  0  1  0  0  0  0  0  0  0  0  0
    9.5886  -12.5480   16.8201 C   0  0  0  0  0  0  0  0  0  0  0  0
    8.4734  -13.4165   16.2529 C   0  0  0  0  0  0  0  0  0  0  0  0
    9.3141  -14.5495   15.7104 C   0  0  0  0  0  0  0  0  0  0  0  0
   12.0287  -12.2661   16.2106 C   0  0  0  0  0  0  0  0  0  0  0  0
   12.2131  -11.4466   17.1156 O   0  0  0  0  0  0  0  0  0  0  0  0
   13.0687  -12.8991   15.5810 N   0  0  0  0  0  0  0  0  0  0  0  0
   14.4851  -12.6804   15.9105 C   0  0  2  0  0  0  0  0  0  0  0  0
   14.9974  -11.3221   15.3677 C   0  0  0  0  0  0  0  0  0  0  0  0
   15.8491  -11.4366   14.1529 C   0  0  0  0  0  0  0  0  0  0  0  0
   16.3218  -10.0805   13.2313 S   0  0  0  0  0  0  0  0  0  0  0  0
   17.1708  -11.1138   12.1473 C   0  0  0  0  0  0  0  0  0  0  0  0
   17.8394  -10.5948   11.0988 N   0  0  0  0  0  0  0  0  0  0  0  0
   17.1091  -12.3940   12.4482 N   0  0  0  0  0  0  0  0  0  0  0  0
   16.3553  -12.5940   13.6096 C   0  0  0  0  0  0  0  0  0  0  0  0
   16.0723  -13.9481   14.1901 C   0  0  0  0  0  0  0  0  0  0  0  0
   15.3694  -13.9108   15.5741 C   0  0  0  0  0  0  0  0  0  0  0  0
   10.7989  -14.0894   13.7167 C   0  0  0  0  0  0  0  0  0  0  0  0
   11.5026  -13.2824   13.1127 O   0  0  0  0  0  0  0  0  0  0  0  0
   10.4993  -15.4991   13.1682 C   0  0  2  0  0  0  0  0  0  0  0  0
   11.3855  -16.3367   14.0008 N   0  0  0  0  0  0  0  0  0  0  0  0
   12.8796  -16.9930   13.6456 S   0  0  0  0  0  0  0  0  0  0  0  0
   13.4761  -16.1987   12.5952 O   0  0  0  0  0  0  0  0  0  0  0  0
   13.4910  -17.2666   14.9140 O   0  0  0  0  0  0  0  0  0  0  0  0
   12.2168  -18.4989   12.9998 C   0  0  0  0  0  0  0  0  0  0  0  0
   13.1947  -19.3242   12.2503 C   0  0  0  0  0  0  0  0  0  0  0  0
   13.0034  -19.4599   10.8673 C   0  0  0  0  0  0  0  0  0  0  0  0
   13.8180  -20.2980   10.1183 C   0  0  0  0  0  0  0  0  0  0  0  0
   14.8407  -21.0042   10.7426 C   0  0  0  0  0  0  0  0  0  0  0  0
   15.0472  -20.8715   12.1174 C   0  0  0  0  0  0  0  0  0  0  0  0
   14.2297  -20.0295   12.8735 C   0  0  0  0  0  0  0  0  0  0  0  0
   10.4477  -15.5453   11.6260 C   0  0  0  0  0  0  0  0  0  0  0  0
    9.1287  -14.7656   11.1590 C   0  0  0  0  0  0  0  0  0  0  0  0
    7.7901  -15.4801   11.5118 C   0  0  0  0  0  0  0  0  0  0  0  0
    6.5318  -14.6564   11.1831 C   0  0  0  0  0  0  0  0  0  0  0  0
    6.5314  -14.0385    9.7904 C   0  0  0  0  0  0  0  0  0  0  0  0
    7.8744  -13.4174    9.4139 C   0  0  0  0  0  0  0  0  0  0  0  0
    9.0701  -14.3581    9.6749 C   0  0  0  0  0  0  0  0  0  0  0  0
   10.3447  -11.7139   14.9482 H   0  0  0  0  0  0  0  0  0  0  0  0
    9.2489  -11.5707   17.1628 H   0  0  0  0  0  0  0  0  0  0  0  0
   10.0342  -13.0701   17.6791 H   0  0  0  0  0  0  0  0  0  0  0  0
    7.9660  -12.8970   15.4266 H   0  0  0  0  0  0  0  0  0  0  0  0
    7.7276  -13.7307   16.9840 H   0  0  0  0  0  0  0  0  0  0  0  0
    9.7994  -15.1038   16.5247 H   0  0  0  0  0  0  0  0  0  0  0  0
    8.7354  -15.2475   15.1117 H   0  0  0  0  0  0  0  0  0  0  0  0
   12.8621  -13.3492   14.6789 H   0  0  0  0  0  0  0  0  0  0  0  0
   14.4823  -12.5901   16.9993 H   0  0  0  0  0  0  0  0  0  0  0  0
   15.5872  -10.8335   16.1523 H   0  0  0  0  0  0  0  0  0  0  0  0
   14.1514  -10.6669   15.1365 H   0  0  0  0  0  0  0  0  0  0  0  0
   18.2460  -11.2248   10.4152 H   0  0  0  0  0  0  0  0  0  0  0  0
   17.7586   -9.6195   10.8418 H   0  0  0  0  0  0  0  0  0  0  0  0
   17.0124  -14.5070   14.2908 H   0  0  0  0  0  0  0  0  0  0  0  0
   15.4496  -14.5224   13.4956 H   0  0  0  0  0  0  0  0  0  0  0  0
   14.7767  -14.8280   15.7024 H   0  0  0  0  0  0  0  0  0  0  0  0
   16.1507  -13.9880   16.3479 H   0  0  0  0  0  0  0  0  0  0  0  0
    9.5062  -15.8181   13.4660 H   0  0  0  0  0  0  0  0  0  0  0  0
   10.9298  -16.8252   14.7734 H   0  0  0  0  0  0  0  0  0  0  0  0
   11.4170  -18.1822   12.3298 H   0  0  0  0  0  0  0  0  0  0  0  0
   11.7629  -19.0370   13.8425 H   0  0  0  0  0  0  0  0  0  0  0  0
   12.2056  -18.9141   10.3681 H   0  0  0  0  0  0  0  0  0  0  0  0
   13.6512  -20.3918    9.0486 H   0  0  0  0  0  0  0  0  0  0  0  0
   15.4818  -21.6547   10.1544 H   0  0  0  0  0  0  0  0  0  0  0  0
   15.8491  -21.4266   12.5976 H   0  0  0  0  0  0  0  0  0  0  0  0
   14.4036  -19.9406   13.9454 H   0  0  0  0  0  0  0  0  0  0  0  0
   10.4434  -16.5682   11.2294 H   0  0  0  0  0  0  0  0  0  0  0  0
   11.3467  -15.0668   11.2125 H   0  0  0  0  0  0  0  0  0  0  0  0
    9.1446  -13.8219   11.7166 H   0  0  0  0  0  0  0  0  0  0  0  0
    7.7282  -15.7113   12.5786 H   0  0  0  0  0  0  0  0  0  0  0  0
    7.7324  -16.4404   10.9850 H   0  0  0  0  0  0  0  0  0  0  0  0
    6.4124  -13.8609   11.9302 H   0  0  0  0  0  0  0  0  0  0  0  0
    5.6411  -15.2921   11.2878 H   0  0  0  0  0  0  0  0  0  0  0  0
    5.7405  -13.2769    9.7316 H   0  0  0  0  0  0  0  0  0  0  0  0
    6.2644  -14.8039    9.0525 H   0  0  0  0  0  0  0  0  0  0  0  0
    8.0058  -12.4841    9.9780 H   0  0  0  0  0  0  0  0  0  0  0  0
    7.8468  -13.1329    8.3551 H   0  0  0  0  0  0  0  0  0  0  0  0
    8.9747  -15.2429    9.0343 H   0  0  0  0  0  0  0  0  0  0  0  0
    9.9901  -13.8397    9.3843 H   0  0  0  0  0  0  0  0  0  0  0  0
  1  2  1  0  0  0  0
  1  5  1  0  0  0  0
  1 19  1  0  0  0  0
  2  3  1  0  0  0  0
  2  6  1  0  0  0  0
  2 40  1  6  0  0  0
  3  4  1  0  0  0  0
  3 41  1  0  0  0  0
  3 42  1  0  0  0  0
  4  5  1  0  0  0  0
  4 43  1  0  0  0  0
  4 44  1  0  0  0  0
  5 45  1  0  0  0  0
  5 46  1  0  0  0  0
  6  7  2  0  0  0  0
  6  8  1  0  0  0  0
  8  9  1  0  0  0  0
  8 47  1  0  0  0  0
  9 10  1  0  0  0  0
  9 18  1  0  0  0  0
  9 48  1  1  0  0  0
 10 11  1  0  0  0  0
 10 49  1  0  0  0  0
 10 50  1  0  0  0  0
 11 12  1  0  0  0  0
 11 16  2  0  0  0  0
 12 13  1  0  0  0  0
 13 14  1  0  0  0  0
 13 15  2  0  0  0  0
 14 51  1  0  0  0  0
 14 52  1  0  0  0  0
 15 16  1  0  0  0  0
 16 17  1  0  0  0  0
 17 18  1  0  0  0  0
 17 53  1  0  0  0  0
 17 54  1  0  0  0  0
 18 55  1  0  0  0  0
 18 56  1  0  0  0  0
 19 20  2  0  0  0  0
 19 21  1  0  0  0  0
 21 22  1  0  0  0  0
 21 33  1  0  0  0  0
 21 57  1  1  0  0  0
 22 23  1  0  0  0  0
 22 58  1  0  0  0  0
 23 24  2  0  0  0  0
 23 25  2  0  0  0  0
 23 26  1  0  0  0  0
 26 27  1  0  0  0  0
 26 59  1  0  0  0  0
 26 60  1  0  0  0  0
 27 28  2  0  0  0  0
 27 32  1  0  0  0  0
 28 29  1  0  0  0  0
 28 61  1  0  0  0  0
 29 30  2  0  0  0  0
 29 62  1  0  0  0  0
 30 31  1  0  0  0  0
 30 63  1  0  0  0  0
 31 32  2  0  0  0  0
 31 64  1  0  0  0  0
 32 65  1  0  0  0  0
 33 34  1  0  0  0  0
 33 66  1  0  0  0  0
 33 67  1  0  0  0  0
 34 35  1  0  0  0  0
 34 39  1  0  0  0  0
 34 68  1  0  0  0  0
 35 36  1  0  0  0  0
 35 69  1  0  0  0  0
 35 70  1  0  0  0  0
 36 37  1  0  0  0  0
 36 71  1  0  0  0  0
 36 72  1  0  0  0  0
 37 38  1  0  0  0  0
 37 73  1  0  0  0  0
 37 74  1  0  0  0  0
 38 39  1  0  0  0  0
 38 75  1  0  0  0  0
 38 76  1  0  0  0  0
 39 77  1  0  0  0  0
 39 78  1  0  0  0  0
M  END
$$$$
