184
 OpenBabel04041914393D

 56 59  0  0  1  0  0  0  0  0999 V2000
   34.7976   18.3344   88.2881 C   0  0  0  0  0  0  0  0  0  0  0  0
   35.7038   17.3208   87.6571 C   0  0  0  0  0  0  0  0  0  0  0  0
   35.7707   16.0363   88.1879 C   0  0  0  0  0  0  0  0  0  0  0  0
   36.5884   15.0752   87.5989 C   0  0  0  0  0  0  0  0  0  0  0  0
   37.3505   15.3734   86.4658 C   0  0  0  0  0  0  0  0  0  0  0  0
   37.2905   16.6741   85.9132 C   0  0  0  0  0  0  0  0  0  0  0  0
   36.4608   17.6335   86.5154 C   0  0  0  0  0  0  0  0  0  0  0  0
   42.7003   13.8449   81.6966 C   0  0  0  0  0  0  0  0  0  0  0  0
   43.0561   13.2174   80.3635 C   0  0  0  0  0  0  0  0  0  0  0  0
   44.4894   13.5491   79.9503 C   0  0  0  0  0  0  0  0  0  0  0  0
   44.9350   14.9431   80.2633 C   0  0  0  0  0  0  0  0  0  0  0  0
   44.8129   15.3121   81.7335 C   0  0  0  0  0  0  0  0  0  0  0  0
   43.5112   14.8105   82.3165 C   0  0  0  0  0  0  0  0  0  0  0  0
   42.0350   13.6635   79.3076 C   0  0  0  0  0  0  0  0  0  0  0  0
   43.0411   11.6852   80.4303 C   0  0  0  0  0  0  0  0  0  0  0  0
   44.8195   16.8409   81.6894 C   0  0  0  0  0  0  0  0  0  0  0  0
   45.9817   14.8563   82.6304 C   0  0  0  0  0  0  0  0  0  0  0  0
   34.4280   18.1247   89.4670 O   0  0  0  0  0  0  0  0  0  0  0  0
   34.4793   19.3567   87.5664 O   0  0  0  0  0  0  0  0  0  0  0  0
   38.1631   14.4162   85.8705 C   0  0  0  0  0  0  0  0  0  0  0  0
   38.9471   14.6867   84.7308 C   0  0  0  0  0  0  0  0  0  0  0  0
   38.8652   15.9809   84.1909 C   0  0  0  0  0  0  0  0  0  0  0  0
   38.0575   16.9641   84.7767 C   0  0  0  0  0  0  0  0  0  0  0  0
   41.1311   14.0280   83.5598 C   0  0  0  0  0  0  0  0  0  0  0  0
   41.5136   13.4821   82.3309 C   0  0  0  0  0  0  0  0  0  0  0  0
   43.1283   15.3517   83.5472 C   0  0  0  0  0  0  0  0  0  0  0  0
   41.9598   14.9704   84.1709 C   0  0  0  0  0  0  0  0  0  0  0  0
   39.7992   13.5872   84.1186 C   0  0  1  0  0  0  0  0  0  0  0  0
   39.9557   12.5289   85.0727 O   0  0  0  0  0  0  0  0  0  0  0  0
   35.1724   15.7977   89.0591 H   0  0  0  0  0  0  0  0  0  0  0  0
   36.6173   14.0809   88.0473 H   0  0  0  0  0  0  0  0  0  0  0  0
   36.3980   18.6412   86.1007 H   0  0  0  0  0  0  0  0  0  0  0  0
   44.5984   13.3986   78.8741 H   0  0  0  0  0  0  0  0  0  0  0  0
   45.1729   12.8745   80.4735 H   0  0  0  0  0  0  0  0  0  0  0  0
   44.3172   15.6325   79.6727 H   0  0  0  0  0  0  0  0  0  0  0  0
   45.9744   15.0628   79.9446 H   0  0  0  0  0  0  0  0  0  0  0  0
   41.0139   13.3919   79.6078 H   0  0  0  0  0  0  0  0  0  0  0  0
   42.2350   13.1781   78.3456 H   0  0  0  0  0  0  0  0  0  0  0  0
   42.0675   14.7481   79.1662 H   0  0  0  0  0  0  0  0  0  0  0  0
   42.0577   11.2984   80.6965 H   0  0  0  0  0  0  0  0  0  0  0  0
   43.7661   11.3380   81.1766 H   0  0  0  0  0  0  0  0  0  0  0  0
   43.3276   11.2644   79.4572 H   0  0  0  0  0  0  0  0  0  0  0  0
   44.7579   17.2715   82.6864 H   0  0  0  0  0  0  0  0  0  0  0  0
   43.9627   17.1950   81.1038 H   0  0  0  0  0  0  0  0  0  0  0  0
   45.7402   17.1941   81.2161 H   0  0  0  0  0  0  0  0  0  0  0  0
   46.0301   13.7666   82.7244 H   0  0  0  0  0  0  0  0  0  0  0  0
   45.8736   15.2643   83.6496 H   0  0  0  0  0  0  0  0  0  0  0  0
   46.9412   15.2196   82.2478 H   0  0  0  0  0  0  0  0  0  0  0  0
   38.2141   13.4108   86.2992 H   0  0  0  0  0  0  0  0  0  0  0  0
   39.4447   16.2439   83.3100 H   0  0  0  0  0  0  0  0  0  0  0  0
   38.0159   17.9656   84.3470 H   0  0  0  0  0  0  0  0  0  0  0  0
   40.8392   12.7597   81.8680 H   0  0  0  0  0  0  0  0  0  0  0  0
   43.7665   16.0886   84.0288 H   0  0  0  0  0  0  0  0  0  0  0  0
   41.7065   15.4374   85.1164 H   0  0  0  0  0  0  0  0  0  0  0  0
   39.2493   13.1535   83.2711 H   0  0  0  0  0  0  0  0  0  0  0  0
   40.4805   11.8097   84.6981 H   0  0  0  0  0  0  0  0  0  0  0  0
  1 19  2  0  0  0  0
  1 18  1  0  0  0  0
  1  2  1  0  0  0  0
  2  7  2  0  0  0  0
  2  3  1  0  0  0  0
  3  4  2  0  0  0  0
  3 30  1  0  0  0  0
  4  5  1  0  0  0  0
  4 31  1  0  0  0  0
  5 20  2  0  0  0  0
  5  6  1  0  0  0  0
  6 23  2  0  0  0  0
  6  7  1  0  0  0  0
  7 32  1  0  0  0  0
  8 25  2  0  0  0  0
  8 13  1  0  0  0  0
  8  9  1  0  0  0  0
  9 15  1  0  0  0  0
  9 14  1  0  0  0  0
  9 10  1  0  0  0  0
 10 11  1  0  0  0  0
 10 33  1  0  0  0  0
 10 34  1  0  0  0  0
 11 12  1  0  0  0  0
 11 35  1  0  0  0  0
 11 36  1  0  0  0  0
 12 17  1  0  0  0  0
 12 16  1  0  0  0  0
 12 13  1  0  0  0  0
 13 26  2  0  0  0  0
 14 37  1  0  0  0  0
 14 38  1  0  0  0  0
 14 39  1  0  0  0  0
 15 40  1  0  0  0  0
 15 41  1  0  0  0  0
 15 42  1  0  0  0  0
 16 43  1  0  0  0  0
 16 44  1  0  0  0  0
 16 45  1  0  0  0  0
 17 46  1  0  0  0  0
 17 47  1  0  0  0  0
 17 48  1  0  0  0  0
 20 21  1  0  0  0  0
 20 49  1  0  0  0  0
 21 22  2  0  0  0  0
 21 28  1  0  0  0  0
 22 23  1  0  0  0  0
 22 50  1  0  0  0  0
 23 51  1  0  0  0  0
 24 28  1  0  0  0  0
 24 27  2  0  0  0  0
 24 25  1  0  0  0  0
 25 52  1  0  0  0  0
 26 27  1  0  0  0  0
 26 53  1  0  0  0  0
 27 54  1  0  0  0  0
 28 29  1  0  0  0  0
 28 55  1  6  0  0  0
 29 56  1  0  0  0  0
M  END
$$$$
