192
 OpenBabel04041917443D

 17 17  0  0  0  0  0  0  0  0999 V2000
   21.1362   31.2778    7.6325 N   0  3  0  0  0  0  0  0  0  0  0  0
   23.0419   34.0664    9.0270 O   0  0  0  0  0  0  0  0  0  0  0  0
   21.4133   32.7444    7.8277 C   0  0  0  0  0  0  0  0  0  0  0  0
   22.6500   32.9095    8.7179 C   0  0  0  0  0  0  0  0  0  0  0  0
   21.4367   33.5071    6.4902 C   0  0  0  0  0  0  0  0  0  0  0  0
   20.0374   34.0603    6.8042 C   0  0  0  0  0  0  0  0  0  0  0  0
   20.1578   33.5342    8.2442 C   0  0  0  0  0  0  0  0  0  0  0  0
   23.1565   31.7888    9.0575 O   0  0  0  0  0  0  0  0  0  0  0  0
   20.3143   31.0422    7.0833 H   0  0  0  0  0  0  0  0  0  0  0  0
   22.0008   30.8648    7.2484 H   0  0  0  0  0  0  0  0  0  0  0  0
   21.4873   32.8863    5.5894 H   0  0  0  0  0  0  0  0  0  0  0  0
   22.2103   34.2790    6.4149 H   0  0  0  0  0  0  0  0  0  0  0  0
   19.2362   33.5872    6.2276 H   0  0  0  0  0  0  0  0  0  0  0  0
   19.9465   35.1469    6.7175 H   0  0  0  0  0  0  0  0  0  0  0  0
   20.3316   34.3232    8.9844 H   0  0  0  0  0  0  0  0  0  0  0  0
   19.3043   32.9367    8.5818 H   0  0  0  0  0  0  0  0  0  0  0  0
   21.1213   30.8535    8.5746 H   0  0  0  0  0  0  0  0  0  0  0  0
  1  3  1  0  0  0  0
  1  9  1  0  0  0  0
  1 10  1  0  0  0  0
  1 17  1  0  0  0  0
  2  4  2  0  0  0  0
  3  4  1  0  0  0  0
  3  5  1  0  0  0  0
  3  7  1  0  0  0  0
  4  8  1  0  0  0  0
  5  6  1  0  0  0  0
  5 11  1  0  0  0  0
  5 12  1  0  0  0  0
  6  7  1  0  0  0  0
  6 13  1  0  0  0  0
  6 14  1  0  0  0  0
  7 15  1  0  0  0  0
  7 16  1  0  0  0  0
M  CHG  1   1   1
M  END
$$$$
