198
 OpenBabel04041917543D

 43 44  0  0  1  0  0  0  0  0999 V2000
   29.1832    1.4695    9.0090 C   0  0  0  0  0  0  0  0  0  0  0  0
   28.7467    1.3066   10.3291 C   0  0  0  0  0  0  0  0  0  0  0  0
   29.5444    0.6261   11.2436 C   0  0  0  0  0  0  0  0  0  0  0  0
   29.1281    0.4675   12.5077 F   0  0  0  0  0  0  0  0  0  0  0  0
   30.7733    0.1054   10.8548 C   0  0  0  0  0  0  0  0  0  0  0  0
   31.2149    0.2666    9.5384 C   0  0  0  0  0  0  0  0  0  0  0  0
   30.4144    0.9384    8.6110 C   0  0  0  0  0  0  0  0  0  0  0  0
   30.9912    1.1578    6.9220 S   0  0  0  0  0  0  0  0  0  0  0  0
   30.4756    2.4336    6.4674 O   0  0  0  0  0  0  0  0  0  0  0  0
   32.4353    1.0134    6.9416 O   0  0  0  0  0  0  0  0  0  0  0  0
   30.2583   -0.2254    5.9720 C   0  0  0  0  0  0  0  0  0  0  0  0
   29.6963    0.2136    4.6219 C   0  0  1  0  0  0  0  0  0  0  0  0
   30.6636    0.9586    3.8862 O   0  0  0  0  0  0  0  0  0  0  0  0
   29.2799   -1.0116    3.7955 C   0  0  0  0  0  0  0  0  0  0  0  0
   28.4553    1.0581    4.8433 C   0  0  0  0  0  0  0  0  0  0  0  0
   27.4492    0.6075    5.3856 O   0  0  0  0  0  0  0  0  0  0  0  0
   28.6269    2.3561    4.4543 N   0  0  0  0  0  0  0  0  0  0  0  0
   27.6789    3.3510    4.5053 C   0  0  0  0  0  0  0  0  0  0  0  0
   26.3520    3.0939    4.8254 C   0  0  0  0  0  0  0  0  0  0  0  0
   28.0928    4.6152    4.1402 C   0  0  0  0  0  0  0  0  0  0  0  0
   27.1575    5.6246    4.0838 C   0  0  0  0  0  0  0  0  0  0  0  0
   25.8103    5.3754    4.3912 C   0  0  0  0  0  0  0  0  0  0  0  0
   24.9347    6.4797    4.3260 C   0  0  0  0  0  0  0  0  0  0  0  0
   24.2280    7.4218    4.2627 N   0  0  0  0  0  0  0  0  0  0  0  0
   25.3865    4.0916    4.7448 C   0  0  0  0  0  0  0  0  0  0  0  0
   23.9604    3.7416    5.0693 C   0  0  0  0  0  0  0  0  0  0  0  0
   23.7045    3.8721    6.3995 F   0  0  0  0  0  0  0  0  0  0  0  0
   23.0234    4.4909    4.4275 F   0  0  0  0  0  0  0  0  0  0  0  0
   23.6397    2.4527    4.7500 F   0  0  0  0  0  0  0  0  0  0  0  0
   28.5614    2.0008    8.2960 H   0  0  0  0  0  0  0  0  0  0  0  0
   27.7882    1.7123   10.6373 H   0  0  0  0  0  0  0  0  0  0  0  0
   31.3906   -0.4240   11.5725 H   0  0  0  0  0  0  0  0  0  0  0  0
   32.1759   -0.1360    9.2374 H   0  0  0  0  0  0  0  0  0  0  0  0
   29.4605   -0.7038    6.5526 H   0  0  0  0  0  0  0  0  0  0  0  0
   31.0552   -0.9606    5.7895 H   0  0  0  0  0  0  0  0  0  0  0  0
   31.4526    0.4090    3.7581 H   0  0  0  0  0  0  0  0  0  0  0  0
   28.8678   -0.7006    2.8244 H   0  0  0  0  0  0  0  0  0  0  0  0
   28.5169   -1.5982    4.3260 H   0  0  0  0  0  0  0  0  0  0  0  0
   30.1506   -1.6540    3.6084 H   0  0  0  0  0  0  0  0  0  0  0  0
   29.5592    2.6047    4.1263 H   0  0  0  0  0  0  0  0  0  0  0  0
   26.0443    2.0953    5.1125 H   0  0  0  0  0  0  0  0  0  0  0  0
   29.1316    4.8115    3.8947 H   0  0  0  0  0  0  0  0  0  0  0  0
   27.4635    6.6255    3.7946 H   0  0  0  0  0  0  0  0  0  0  0  0
  1  2  2  0  0  0  0
  1  7  1  0  0  0  0
  1 30  1  0  0  0  0
  2  3  1  0  0  0  0
  2 31  1  0  0  0  0
  3  4  1  0  0  0  0
  3  5  2  0  0  0  0
  5  6  1  0  0  0  0
  5 32  1  0  0  0  0
  6  7  2  0  0  0  0
  6 33  1  0  0  0  0
  7  8  1  0  0  0  0
  8  9  2  0  0  0  0
  8 10  2  0  0  0  0
  8 11  1  0  0  0  0
 11 34  1  0  0  0  0
 11 35  1  0  0  0  0
 12 11  1  1  0  0  0
 12 13  1  0  0  0  0
 12 14  1  0  0  0  0
 12 15  1  0  0  0  0
 13 36  1  0  0  0  0
 14 37  1  0  0  0  0
 14 38  1  0  0  0  0
 14 39  1  0  0  0  0
 15 16  2  0  0  0  0
 15 17  1  0  0  0  0
 17 18  1  0  0  0  0
 17 40  1  0  0  0  0
 18 19  2  0  0  0  0
 18 20  1  0  0  0  0
 19 25  1  0  0  0  0
 19 41  1  0  0  0  0
 20 21  2  0  0  0  0
 20 42  1  0  0  0  0
 21 22  1  0  0  0  0
 21 43  1  0  0  0  0
 22 23  1  0  0  0  0
 22 25  2  0  0  0  0
 23 24  3  0  0  0  0
 25 26  1  0  0  0  0
 26 27  1  0  0  0  0
 26 28  1  0  0  0  0
 26 29  1  0  0  0  0
M  END
$$$$
