1AN
 OpenBabel04041915333D

 14 14  0  0  0  0  0  0  0  0999 V2000
   26.0633    5.6316    5.5800 C   0  0  0  0  0  0  0  0  0  0  0  0
   26.7973    6.8001    5.7917 C   0  0  0  0  0  0  0  0  0  0  0  0
   26.1043    5.0104    4.3402 C   0  0  0  0  0  0  0  0  0  0  0  0
   27.5720    7.3496    4.7569 C   0  0  0  0  0  0  0  0  0  0  0  0
   26.9036    5.5520    3.3322 C   0  0  0  0  0  0  0  0  0  0  0  0
   27.6553    6.7172    3.5232 C   0  0  0  0  0  0  0  0  0  0  0  0
   28.4353    7.2385    2.4996 N   0  0  0  0  0  0  0  0  0  0  0  0
   26.9499    4.9238    2.1463 F   0  0  0  0  0  0  0  0  0  0  0  0
   25.4639    5.2057    6.3850 H   0  0  0  0  0  0  0  0  0  0  0  0
   26.7673    7.2857    6.7616 H   0  0  0  0  0  0  0  0  0  0  0  0
   25.5295    4.1106    4.1401 H   0  0  0  0  0  0  0  0  0  0  0  0
   28.1162    8.2694    4.9422 H   0  0  0  0  0  0  0  0  0  0  0  0
   28.9792    8.0787    2.6214 H   0  0  0  0  0  0  0  0  0  0  0  0
   28.5356    6.7034    1.6413 H   0  0  0  0  0  0  0  0  0  0  0  0
  1  3  2  0  0  0  0
  1  2  1  0  0  0  0
  1  9  1  0  0  0  0
  2  4  2  0  0  0  0
  2 10  1  0  0  0  0
  3  5  1  0  0  0  0
  3 11  1  0  0  0  0
  4  6  1  0  0  0  0
  4 12  1  0  0  0  0
  5  6  2  0  0  0  0
  5  8  1  0  0  0  0
  6  7  1  0  0  0  0
  7 13  1  0  0  0  0
  7 14  1  0  0  0  0
M  END
$$$$
