1DM
 OpenBabel04041916293D

 40 41  0  0  1  0  0  0  0  0999 V2000
   53.0948   23.4946   33.0383 C   0  0  0  0  0  0  0  0  0  0  0  0
   53.7202   24.0168   34.1825 O   0  0  0  0  0  0  0  0  0  0  0  0
   52.7704   22.0218   33.1382 C   0  0  0  0  0  0  0  0  0  0  0  0
   53.0536   21.2025   34.2366 C   0  0  0  0  0  0  0  0  0  0  0  0
   52.1305   21.4754   32.0255 C   0  0  0  0  0  0  0  0  0  0  0  0
   51.8027   20.1214   32.0129 C   0  0  0  0  0  0  0  0  0  0  0  0
   51.1245   19.5863   30.8231 N   0  0  0  0  0  0  0  0  0  0  0  0
   50.9641   20.3467   29.8556 O   0  0  0  0  0  0  0  0  0  0  0  0
   50.7533   18.4009   30.8494 O   0  0  0  0  0  0  0  0  0  0  0  0
   52.0985   19.2966   33.0885 C   0  0  0  0  0  0  0  0  0  0  0  0
   52.6930   19.8537   34.2167 C   0  0  0  0  0  0  0  0  0  0  0  0
   53.0170   19.0251   35.2630 O   0  0  0  0  0  0  0  0  0  0  0  0
   51.9720   18.9871   36.2633 C   0  0  1  0  0  0  0  0  0  0  0  0
   50.7613   18.3974   35.7833 O   0  0  0  0  0  0  0  0  0  0  0  0
   50.9284   17.0173   35.3975 C   0  0  2  0  0  0  0  0  0  0  0  0
   49.6033   16.5407   34.8089 C   0  0  0  0  0  0  0  0  0  0  0  0
   49.2509   17.3499   33.6860 O   0  0  0  0  0  0  0  0  0  0  0  0
   51.3854   16.1525   36.5710 C   0  0  2  0  0  0  0  0  0  0  0  0
   50.3823   16.1407   37.5936 O   0  0  0  0  0  0  0  0  0  0  0  0
   52.6836   16.7224   37.1443 C   0  0  2  0  0  0  0  0  0  0  0  0
   53.0528   15.9477   38.2951 O   0  0  0  0  0  0  0  0  0  0  0  0
   52.5176   18.2132   37.4859 C   0  0  1  0  0  0  0  0  0  0  0  0
   53.7796   18.7568   37.8988 O   0  0  0  0  0  0  0  0  0  0  0  0
   53.7612   23.6395   32.1791 H   0  0  0  0  0  0  0  0  0  0  0  0
   52.1600   24.0375   32.8722 H   0  0  0  0  0  0  0  0  0  0  0  0
   53.8618   24.9569   33.9695 H   0  0  0  0  0  0  0  0  0  0  0  0
   53.5587   21.6158   35.1107 H   0  0  0  0  0  0  0  0  0  0  0  0
   51.9167   22.1107   31.1645 H   0  0  0  0  0  0  0  0  0  0  0  0
   51.8470   18.2429   33.0427 H   0  0  0  0  0  0  0  0  0  0  0  0
   51.7522   20.0156   36.5853 H   0  0  0  0  0  0  0  0  0  0  0  0
   51.6896   16.9626   34.6154 H   0  0  0  0  0  0  0  0  0  0  0  0
   48.7893   16.6113   35.5345 H   0  0  0  0  0  0  0  0  0  0  0  0
   49.6895   15.5071   34.4615 H   0  0  0  0  0  0  0  0  0  0  0  0
   49.1934   18.2648   34.0203 H   0  0  0  0  0  0  0  0  0  0  0  0
   51.5420   15.1181   36.2441 H   0  0  0  0  0  0  0  0  0  0  0  0
   50.6826   15.5275   38.2875 H   0  0  0  0  0  0  0  0  0  0  0  0
   53.5001   16.6018   36.4218 H   0  0  0  0  0  0  0  0  0  0  0  0
   52.4218   16.1524   39.0064 H   0  0  0  0  0  0  0  0  0  0  0  0
   51.8280   18.3125   38.3329 H   0  0  0  0  0  0  0  0  0  0  0  0
   54.3767   18.6715   37.1312 H   0  0  0  0  0  0  0  0  0  0  0  0
  1  2  1  0  0  0  0
  1  3  1  0  0  0  0
  1 24  1  0  0  0  0
  1 25  1  0  0  0  0
  2 26  1  0  0  0  0
  3  4  2  0  0  0  0
  3  5  1  0  0  0  0
  4 11  1  0  0  0  0
  4 27  1  0  0  0  0
  5  6  2  0  0  0  0
  5 28  1  0  0  0  0
  6  7  1  0  0  0  0
  6 10  1  0  0  0  0
  7  8  2  0  0  0  0
  7  9  2  0  0  0  0
 10 11  2  0  0  0  0
 10 29  1  0  0  0  0
 11 12  1  0  0  0  0
 12 13  1  0  0  0  0
 13 14  1  0  0  0  0
 13 22  1  0  0  0  0
 13 30  1  1  0  0  0
 14 15  1  0  0  0  0
 15 16  1  0  0  0  0
 15 18  1  0  0  0  0
 15 31  1  6  0  0  0
 16 17  1  0  0  0  0
 16 32  1  0  0  0  0
 16 33  1  0  0  0  0
 17 34  1  0  0  0  0
 18 19  1  0  0  0  0
 18 20  1  0  0  0  0
 18 35  1  6  0  0  0
 19 36  1  0  0  0  0
 20 21  1  0  0  0  0
 20 22  1  0  0  0  0
 20 37  1  6  0  0  0
 21 38  1  0  0  0  0
 22 23  1  0  0  0  0
 22 39  1  1  0  0  0
 23 40  1  0  0  0  0
M  END
$$$$
