1NH
 OpenBabel04041916023D

 62 63  0  0  0  0  0  0  0  0999 V2000
  193.6248  123.4716   29.0606 C   0  0  0  0  0  0  0  0  0  0  0  0
  193.1827  122.9122   30.3868 C   0  0  0  0  0  0  0  0  0  0  0  0
  191.8769  122.1313   30.3757 C   0  0  0  0  0  0  0  0  0  0  0  0
  191.0478  122.1455   31.6720 C   0  0  0  0  0  0  0  0  0  0  0  0
  189.7705  121.3336   31.5530 C   0  0  0  0  0  0  0  0  0  0  0  0
  188.7763  121.3330   32.4689 C   0  0  0  0  0  0  0  0  0  0  0  0
  188.8784  122.1766   33.7116 C   0  0  0  0  0  0  0  0  0  0  0  0
  187.5577  120.4580   32.2981 C   0  0  0  0  0  0  0  0  0  0  0  0
  186.4155  121.0383   32.9263 O   0  0  0  0  0  0  0  0  0  0  0  0
  185.1910  120.4334   32.5297 C   0  0  0  0  0  0  0  0  0  0  0  0
  184.5447  121.1834   31.3919 C   0  0  0  0  0  0  0  0  0  0  0  0
  183.3952  120.6739   30.7746 C   0  0  0  0  0  0  0  0  0  0  0  0
  182.7808  121.3878   29.7575 C   0  0  0  0  0  0  0  0  0  0  0  0
  183.2892  122.6303   29.3742 C   0  0  0  0  0  0  0  0  0  0  0  0
  184.4722  123.1414   29.9249 C   0  0  0  0  0  0  0  0  0  0  0  0
  185.0696  122.4113   30.9541 C   0  0  0  0  0  0  0  0  0  0  0  0
  185.1338  124.4200   29.5292 C   0  0  0  0  0  0  0  0  0  0  0  0
  186.0249  124.8774   30.2803 O   0  0  0  0  0  0  0  0  0  0  0  0
  184.8304  125.1924   28.3009 C   0  0  0  0  0  0  0  0  0  0  0  0
  184.1183  124.6692   27.2165 C   0  0  0  0  0  0  0  0  0  0  0  0
  183.8535  125.4221   26.0800 C   0  0  0  0  0  0  0  0  0  0  0  0
  184.3941  126.7018   25.9742 C   0  0  0  0  0  0  0  0  0  0  0  0
  185.1313  127.2331   27.0162 C   0  0  0  0  0  0  0  0  0  0  0  0
  185.3414  126.4905   28.1896 C   0  0  0  0  0  0  0  0  0  0  0  0
  193.9357  123.1243   31.4917 C   0  0  0  0  0  0  0  0  0  0  0  0
  195.2625  123.8631   31.5836 C   0  0  0  0  0  0  0  0  0  0  0  0
  195.0708  125.0489   32.3240 O   0  0  0  0  0  0  0  0  0  0  0  0
  196.3828  125.6700   33.0974 P   0  0  2  0  0  0  0  0  0  0  0  0
  196.0297  127.1480   33.2720 O   0  0  0  0  0  0  0  0  0  0  0  0
  197.5962  125.3503   32.2433 O   0  0  0  0  0  0  0  0  0  0  0  0
  196.2621  124.9281   34.5084 O   0  0  0  0  0  0  0  0  0  0  0  0
  197.0522  123.7629   35.2928 P   0  0  0  0  0  0  0  0  0  0  0  0
  196.2635  123.5800   36.5974 O   0  0  0  0  0  0  0  0  0  0  0  0
  196.9721  122.5196   34.4107 O   0  0  0  0  0  0  0  0  0  0  0  0
  198.4626  124.2788   35.5595 O   0  0  0  0  0  0  0  0  0  0  0  0
  192.9185  123.2404   28.2569 H   0  0  0  0  0  0  0  0  0  0  0  0
  194.5940  123.0546   28.7680 H   0  0  0  0  0  0  0  0  0  0  0  0
  193.7047  124.5627   29.1175 H   0  0  0  0  0  0  0  0  0  0  0  0
  192.1024  121.0925   30.0975 H   0  0  0  0  0  0  0  0  0  0  0  0
  191.2334  122.5256   29.5765 H   0  0  0  0  0  0  0  0  0  0  0  0
  190.7991  123.1861   31.9132 H   0  0  0  0  0  0  0  0  0  0  0  0
  191.6384  121.7312   32.4961 H   0  0  0  0  0  0  0  0  0  0  0  0
  189.6925  120.6887   30.6811 H   0  0  0  0  0  0  0  0  0  0  0  0
  188.0091  122.0682   34.3648 H   0  0  0  0  0  0  0  0  0  0  0  0
  188.9521  123.2366   33.4456 H   0  0  0  0  0  0  0  0  0  0  0  0
  189.7570  121.8918   34.2993 H   0  0  0  0  0  0  0  0  0  0  0  0
  187.7333  119.4854   32.7689 H   0  0  0  0  0  0  0  0  0  0  0  0
  187.3567  120.3056   31.2296 H   0  0  0  0  0  0  0  0  0  0  0  0
  184.5154  120.4838   33.3897 H   0  0  0  0  0  0  0  0  0  0  0  0
  185.3395  119.3792   32.2671 H   0  0  0  0  0  0  0  0  0  0  0  0
  182.9552  119.7336   31.1015 H   0  0  0  0  0  0  0  0  0  0  0  0
  181.8855  121.0076   29.2667 H   0  0  0  0  0  0  0  0  0  0  0  0
  182.6986  123.1745   28.6549 H   0  0  0  0  0  0  0  0  0  0  0  0
  185.9580  122.8162   31.4455 H   0  0  0  0  0  0  0  0  0  0  0  0
  183.7827  123.6406   27.1744 H   0  0  0  0  0  0  0  0  0  0  0  0
  183.2670  124.9896   25.2754 H   0  0  0  0  0  0  0  0  0  0  0  0
  184.2562  127.2546   25.0493 H   0  0  0  0  0  0  0  0  0  0  0  0
  185.5770  128.2274   26.9274 H   0  0  0  0  0  0  0  0  0  0  0  0
  185.9394  126.9235   28.9953 H   0  0  0  0  0  0  0  0  0  0  0  0
  193.6402  122.7187   32.4576 H   0  0  0  0  0  0  0  0  0  0  0  0
  195.6145  124.1406   30.5847 H   0  0  0  0  0  0  0  0  0  0  0  0
  196.0162  123.2097   32.0292 H   0  0  0  0  0  0  0  0  0  0  0  0
  1  2  1  0  0  0  0
  1 36  1  0  0  0  0
  1 37  1  0  0  0  0
  1 38  1  0  0  0  0
  2  3  1  0  0  0  0
  2 25  2  0  0  0  0
  3  4  1  0  0  0  0
  3 39  1  0  0  0  0
  3 40  1  0  0  0  0
  4  5  1  0  0  0  0
  4 41  1  0  0  0  0
  4 42  1  0  0  0  0
  5  6  2  0  0  0  0
  5 43  1  0  0  0  0
  6  7  1  0  0  0  0
  6  8  1  0  0  0  0
  7 44  1  0  0  0  0
  7 45  1  0  0  0  0
  7 46  1  0  0  0  0
  8  9  1  0  0  0  0
  8 47  1  0  0  0  0
  8 48  1  0  0  0  0
  9 10  1  0  0  0  0
 10 11  1  0  0  0  0
 10 49  1  0  0  0  0
 10 50  1  0  0  0  0
 11 12  2  0  0  0  0
 11 16  1  0  0  0  0
 12 13  1  0  0  0  0
 12 51  1  0  0  0  0
 13 14  2  0  0  0  0
 13 52  1  0  0  0  0
 14 15  1  0  0  0  0
 14 53  1  0  0  0  0
 15 16  2  0  0  0  0
 15 17  1  0  0  0  0
 16 54  1  0  0  0  0
 17 18  2  0  0  0  0
 17 19  1  0  0  0  0
 19 20  2  0  0  0  0
 19 24  1  0  0  0  0
 20 21  1  0  0  0  0
 20 55  1  0  0  0  0
 21 22  2  0  0  0  0
 21 56  1  0  0  0  0
 22 23  1  0  0  0  0
 22 57  1  0  0  0  0
 23 24  2  0  0  0  0
 23 58  1  0  0  0  0
 24 59  1  0  0  0  0
 25 26  1  0  0  0  0
 25 60  1  0  0  0  0
 26 27  1  0  0  0  0
 26 61  1  0  0  0  0
 26 62  1  0  0  0  0
 28 27  1  6  0  0  0
 28 29  2  0  0  0  0
 28 30  1  0  0  0  0
 28 31  1  0  0  0  0
 31 32  1  0  0  0  0
 32 33  2  0  0  0  0
 32 34  1  0  0  0  0
 32 35  1  0  0  0  0
M  END
$$$$
