1Z7
 OpenBabel04041916233D

 91 91  0  0  1  0  0  0  0  0999 V2000
   15.9498    4.1280   17.4777 C   0  0  0  0  0  0  0  0  0  0  0  0
   14.6627    3.6848   18.1927 C   0  0  0  0  0  0  0  0  0  0  0  0
   14.3050    4.8395   19.1086 C   0  0  0  0  0  0  0  0  0  0  0  0
   13.4685    3.5244   17.2566 C   0  0  0  0  0  0  0  0  0  0  0  0
   17.0403    4.3823   18.5007 C   0  0  0  0  0  0  0  0  0  0  0  0
   17.1909    3.6402   19.4511 O   0  0  0  0  0  0  0  0  0  0  0  0
   17.8681    5.4573   18.3684 N   0  0  0  0  0  0  0  0  0  0  0  0
   19.0327    5.6391   19.2389 C   0  0  2  0  0  0  0  0  0  0  0  0
   18.8682    6.9867   19.9591 C   0  0  0  0  0  0  0  0  0  0  0  0
   18.1449    7.8607   19.5653 O   0  0  0  0  0  0  0  0  0  0  0  0
   20.2926    5.6184   18.3725 C   0  0  0  0  0  0  0  0  0  0  0  0
   20.4683    4.2138   17.8085 C   0  0  0  0  0  0  0  0  0  0  0  0
   20.2296    6.5923   17.1924 C   0  0  0  0  0  0  0  0  0  0  0  0
   19.6861    7.1063   21.0701 N   0  0  0  0  0  0  0  0  0  0  0  0
   19.6821    8.3822   21.7855 C   0  0  2  0  0  0  0  0  0  0  0  0
   21.1456    8.6733   22.0293 C   0  0  0  0  0  0  0  0  0  0  0  0
   21.7873    8.0696   22.8722 O   0  0  0  0  0  0  0  0  0  0  0  0
   18.9542    8.2698   23.1276 C   0  0  0  0  0  0  0  0  0  0  0  0
   18.8554    9.6357   23.7967 C   0  0  0  0  0  0  0  0  0  0  0  0
   17.5326    7.7797   22.8921 C   0  0  0  0  0  0  0  0  0  0  0  0
   23.1316    9.8503   21.1407 C   0  0  2  0  0  0  0  0  0  0  0  0
   23.8937    9.3287   19.9170 C   0  0  0  0  0  0  0  0  0  0  0  0
   23.6812    7.8689   19.5255 C   0  0  0  0  0  0  0  0  0  0  0  0
   24.1432    7.6120   18.0855 C   0  0  0  0  0  0  0  0  0  0  0  0
   24.1889    6.8905   20.5729 C   0  0  0  0  0  0  0  0  0  0  0  0
   21.7068    9.5103   21.0968 N   0  0  0  0  0  0  0  0  0  0  0  0
   23.3501   11.7047   21.2476 P   0  0  2  0  0  0  0  0  0  0  0  0
   22.3688   12.3107   20.2561 O   0  0  0  0  0  0  0  0  0  0  0  0
   24.8185   12.0130   21.1121 O   0  0  0  0  0  0  0  0  0  0  0  0
   23.5896   13.0294   23.4914 C   0  0  1  0  0  0  0  0  0  0  0  0
   22.5859   14.0158   24.1179 C   0  0  0  0  0  0  0  0  0  0  0  0
   21.6461   13.4503   25.1619 C   0  0  0  0  0  0  0  0  0  0  0  0
   21.9495   13.5372   26.5240 C   0  0  0  0  0  0  0  0  0  0  0  0
   20.4710   12.8011   24.7849 C   0  0  0  0  0  0  0  0  0  0  0  0
   21.0960   12.9707   27.4729 C   0  0  0  0  0  0  0  0  0  0  0  0
   19.6712   12.1702   25.7356 C   0  0  0  0  0  0  0  0  0  0  0  0
   19.9579   12.2878   27.0854 C   0  0  0  0  0  0  0  0  0  0  0  0
   24.4183   12.3624   24.5916 C   0  0  0  0  0  0  0  0  0  0  0  0
   25.9745   12.6554   26.3752 C   0  0  0  0  0  0  0  0  0  0  0  0
   22.8707   12.0175   22.7629 O   0  0  0  0  0  0  0  0  0  0  0  0
   25.1738   13.2473   25.3277 O   0  0  0  0  0  0  0  0  0  0  0  0
   24.3530   11.1654   24.8575 O   0  0  0  0  0  0  0  0  0  0  0  0
   15.7386    5.0305   16.8962 H   0  0  0  0  0  0  0  0  0  0  0  0
   16.2922    3.3380   16.8072 H   0  0  0  0  0  0  0  0  0  0  0  0
   14.8054    2.7408   18.7446 H   0  0  0  0  0  0  0  0  0  0  0  0
   13.3928    4.6381   19.6629 H   0  0  0  0  0  0  0  0  0  0  0  0
   14.1637    5.7414   18.4975 H   0  0  0  0  0  0  0  0  0  0  0  0
   15.1154    5.0246   19.8082 H   0  0  0  0  0  0  0  0  0  0  0  0
   13.6116    2.6898   16.5713 H   0  0  0  0  0  0  0  0  0  0  0  0
   13.3325    4.4470   16.6825 H   0  0  0  0  0  0  0  0  0  0  0  0
   12.5532    3.3510   17.8429 H   0  0  0  0  0  0  0  0  0  0  0  0
   17.7107    6.1470   17.6682 H   0  0  0  0  0  0  0  0  0  0  0  0
   19.0719    4.8583   20.0161 H   0  0  0  0  0  0  0  0  0  0  0  0
   21.1692    5.8871   18.9689 H   0  0  0  0  0  0  0  0  0  0  0  0
   21.3404    4.1653   17.1502 H   0  0  0  0  0  0  0  0  0  0  0  0
   19.5872    3.9182   17.2236 H   0  0  0  0  0  0  0  0  0  0  0  0
   20.5967    3.5014   18.6248 H   0  0  0  0  0  0  0  0  0  0  0  0
   20.1101    7.6200   17.5426 H   0  0  0  0  0  0  0  0  0  0  0  0
   19.3925    6.3457   16.5268 H   0  0  0  0  0  0  0  0  0  0  0  0
   21.1508    6.5293   16.5997 H   0  0  0  0  0  0  0  0  0  0  0  0
   20.2475    6.3313   21.3847 H   0  0  0  0  0  0  0  0  0  0  0  0
   19.1929    9.1679   21.1985 H   0  0  0  0  0  0  0  0  0  0  0  0
   19.4902    7.5586   23.7701 H   0  0  0  0  0  0  0  0  0  0  0  0
   18.3459    9.5563   24.7650 H   0  0  0  0  0  0  0  0  0  0  0  0
   18.2800   10.3391   23.1763 H   0  0  0  0  0  0  0  0  0  0  0  0
   19.8457   10.0683   23.9612 H   0  0  0  0  0  0  0  0  0  0  0  0
   17.5319    6.7975   22.4129 H   0  0  0  0  0  0  0  0  0  0  0  0
   17.0032    8.4863   22.2422 H   0  0  0  0  0  0  0  0  0  0  0  0
   17.0016    7.7069   23.8416 H   0  0  0  0  0  0  0  0  0  0  0  0
   23.5574    9.4523   22.0598 H   0  0  0  0  0  0  0  0  0  0  0  0
   24.9573    9.5053   20.1130 H   0  0  0  0  0  0  0  0  0  0  0  0
   23.6016    9.9401   19.0553 H   0  0  0  0  0  0  0  0  0  0  0  0
   22.6112    7.6815   19.4898 H   0  0  0  0  0  0  0  0  0  0  0  0
   24.0184    6.5588   17.8027 H   0  0  0  0  0  0  0  0  0  0  0  0
   25.1841    7.9062   17.9159 H   0  0  0  0  0  0  0  0  0  0  0  0
   23.5103    8.2087   17.4069 H   0  0  0  0  0  0  0  0  0  0  0  0
   23.8044    7.1964   21.5518 H   0  0  0  0  0  0  0  0  0  0  0  0
   25.2781    6.8535   20.6228 H   0  0  0  0  0  0  0  0  0  0  0  0
   23.8001    5.8841   20.3688 H   0  0  0  0  0  0  0  0  0  0  0  0
   21.1296    9.9453   20.3808 H   0  0  0  0  0  0  0  0  0  0  0  0
   24.2482   13.5918   22.8133 H   0  0  0  0  0  0  0  0  0  0  0  0
   21.9661   14.4624   23.3298 H   0  0  0  0  0  0  0  0  0  0  0  0
   23.1515   14.8244   24.5961 H   0  0  0  0  0  0  0  0  0  0  0  0
   22.8507   14.0506   26.8475 H   0  0  0  0  0  0  0  0  0  0  0  0
   20.1697   12.7707   23.7408 H   0  0  0  0  0  0  0  0  0  0  0  0
   21.3323   13.0501   28.5286 H   0  0  0  0  0  0  0  0  0  0  0  0
   18.8260   11.5715   25.4193 H   0  0  0  0  0  0  0  0  0  0  0  0
   19.2754   11.8535   27.8124 H   0  0  0  0  0  0  0  0  0  0  0  0
   26.5428   13.4504   26.8899 H   0  0  0  0  0  0  0  0  0  0  0  0
   26.6932   11.9449   25.9523 H   0  0  0  0  0  0  0  0  0  0  0  0
   25.3418   12.1565   27.1181 H   0  0  0  0  0  0  0  0  0  0  0  0
  1  2  1  0  0  0  0
  1  5  1  0  0  0  0
  1 43  1  0  0  0  0
  1 44  1  0  0  0  0
  2  3  1  0  0  0  0
  2  4  1  0  0  0  0
  2 45  1  0  0  0  0
  3 46  1  0  0  0  0
  3 47  1  0  0  0  0
  3 48  1  0  0  0  0
  4 49  1  0  0  0  0
  4 50  1  0  0  0  0
  4 51  1  0  0  0  0
  5  6  2  0  0  0  0
  5  7  1  0  0  0  0
  7  8  1  0  0  0  0
  7 52  1  0  0  0  0
  8 11  1  0  0  0  0
  8  9  1  0  0  0  0
  8 53  1  1  0  0  0
  9 10  2  0  0  0  0
  9 14  1  0  0  0  0
 11 13  1  0  0  0  0
 11 12  1  0  0  0  0
 11 54  1  0  0  0  0
 12 55  1  0  0  0  0
 12 56  1  0  0  0  0
 12 57  1  0  0  0  0
 13 58  1  0  0  0  0
 13 59  1  0  0  0  0
 13 60  1  0  0  0  0
 14 15  1  0  0  0  0
 14 61  1  0  0  0  0
 15 18  1  0  0  0  0
 15 16  1  0  0  0  0
 15 62  1  6  0  0  0
 16 17  2  0  0  0  0
 16 26  1  0  0  0  0
 18 20  1  0  0  0  0
 18 19  1  0  0  0  0
 18 63  1  0  0  0  0
 19 64  1  0  0  0  0
 19 65  1  0  0  0  0
 19 66  1  0  0  0  0
 20 67  1  0  0  0  0
 20 68  1  0  0  0  0
 20 69  1  0  0  0  0
 21 22  1  0  0  0  0
 21 26  1  0  0  0  0
 21 27  1  0  0  0  0
 21 70  1  1  0  0  0
 22 23  1  0  0  0  0
 22 71  1  0  0  0  0
 22 72  1  0  0  0  0
 23 24  1  0  0  0  0
 23 25  1  0  0  0  0
 23 73  1  0  0  0  0
 24 74  1  0  0  0  0
 24 75  1  0  0  0  0
 24 76  1  0  0  0  0
 25 77  1  0  0  0  0
 25 78  1  0  0  0  0
 25 79  1  0  0  0  0
 26 80  1  0  0  0  0
 27 28  2  6  0  0  0
 27 29  1  0  0  0  0
 27 40  1  0  0  0  0
 30 31  1  0  0  0  0
 30 38  1  0  0  0  0
 30 40  1  0  0  0  0
 30 81  1  6  0  0  0
 31 32  1  0  0  0  0
 31 82  1  0  0  0  0
 31 83  1  0  0  0  0
 32 33  2  0  0  0  0
 32 34  1  0  0  0  0
 33 35  1  0  0  0  0
 33 84  1  0  0  0  0
 34 36  2  0  0  0  0
 34 85  1  0  0  0  0
 35 37  2  0  0  0  0
 35 86  1  0  0  0  0
 36 37  1  0  0  0  0
 36 87  1  0  0  0  0
 37 88  1  0  0  0  0
 38 41  1  0  0  0  0
 38 42  2  0  0  0  0
 39 41  1  0  0  0  0
 39 89  1  0  0  0  0
 39 90  1  0  0  0  0
 39 91  1  0  0  0  0
M  END
$$$$
