216
 OpenBabel04041915013D

 60 62  0  0  1  0  0  0  0  0999 V2000
   -8.0196   14.2066   27.8968 O   0  0  0  0  0  0  0  0  0  0  0  0
  -10.1623   19.4194   26.8008 O   0  0  0  0  0  0  0  0  0  0  0  0
  -11.8311   18.4197   28.8636 O   0  0  0  0  0  0  0  0  0  0  0  0
   -8.7555   16.0327   26.7446 N   0  0  0  0  0  0  0  0  0  0  0  0
   -9.3860   15.6620   29.0108 N   0  0  0  0  0  0  0  0  0  0  0  0
   -8.6930   15.2567   27.8776 C   0  0  0  0  0  0  0  0  0  0  0  0
   -8.8017   17.5028   26.7812 C   0  0  1  0  0  0  0  0  0  0  0  0
  -10.1940   18.0229   27.1213 C   0  0  1  0  0  0  0  0  0  0  0  0
  -10.5600   17.8112   28.5810 C   0  0  2  0  0  0  0  0  0  0  0  0
  -10.6862   16.3318   28.9529 C   0  0  1  0  0  0  0  0  0  0  0  0
   -8.2554   15.4610   25.4930 C   0  0  0  0  0  0  0  0  0  0  0  0
   -9.1847   15.8388   24.3750 C   0  0  0  0  0  0  0  0  0  0  0  0
   -8.7548   16.3749   23.2251 C   0  0  0  0  0  0  0  0  0  0  0  0
   -7.6716   18.1689   27.6042 C   0  0  0  0  0  0  0  0  0  0  0  0
   -6.3281   17.9936   26.9458 C   0  0  0  0  0  0  0  0  0  0  0  0
   -5.5273   16.8893   27.2763 C   0  0  0  0  0  0  0  0  0  0  0  0
   -4.3042   16.6872   26.6449 C   0  0  0  0  0  0  0  0  0  0  0  0
   -3.8651   17.5814   25.6726 C   0  0  0  0  0  0  0  0  0  0  0  0
   -4.6630   18.6753   25.3266 C   0  0  0  0  0  0  0  0  0  0  0  0
   -5.8876   18.8808   25.9557 C   0  0  0  0  0  0  0  0  0  0  0  0
  -11.7718   15.5502   28.1692 C   0  0  0  0  0  0  0  0  0  0  0  0
  -12.3944   14.4073   28.9471 C   0  0  0  0  0  0  0  0  0  0  0  0
  -13.2781   14.6809   30.0081 C   0  0  0  0  0  0  0  0  0  0  0  0
  -13.8885   13.6501   30.7178 C   0  0  0  0  0  0  0  0  0  0  0  0
  -13.6302   12.3273   30.3673 C   0  0  0  0  0  0  0  0  0  0  0  0
  -12.7535   12.0372   29.3176 C   0  0  0  0  0  0  0  0  0  0  0  0
  -12.1308   13.0744   28.6093 C   0  0  0  0  0  0  0  0  0  0  0  0
   -9.0913   15.0055   30.2849 C   0  0  0  0  0  0  0  0  0  0  0  0
   -8.9805   16.0433   31.3664 C   0  0  0  0  0  0  0  0  0  0  0  0
   -9.4486   15.8760   32.6111 C   0  0  0  0  0  0  0  0  0  0  0  0
  -11.0572   19.7835   26.9036 H   0  0  0  0  0  0  0  0  0  0  0  0
  -11.7444   19.3712   28.7349 H   0  0  0  0  0  0  0  0  0  0  0  0
   -8.6415   17.8634   25.7554 H   0  0  0  0  0  0  0  0  0  0  0  0
  -10.9488   17.5422   26.4833 H   0  0  0  0  0  0  0  0  0  0  0  0
   -9.8170   18.3059   29.2227 H   0  0  0  0  0  0  0  0  0  0  0  0
  -11.0544   16.3737   29.9863 H   0  0  0  0  0  0  0  0  0  0  0  0
   -8.2293   14.3713   25.5637 H   0  0  0  0  0  0  0  0  0  0  0  0
   -7.2353   15.8102   25.2914 H   0  0  0  0  0  0  0  0  0  0  0  0
  -10.2496   15.6914   24.5322 H   0  0  0  0  0  0  0  0  0  0  0  0
   -9.4527   16.6508   22.4408 H   0  0  0  0  0  0  0  0  0  0  0  0
   -7.6969   16.5457   23.0505 H   0  0  0  0  0  0  0  0  0  0  0  0
   -7.6295   17.7685   28.6220 H   0  0  0  0  0  0  0  0  0  0  0  0
   -7.8599   19.2458   27.7135 H   0  0  0  0  0  0  0  0  0  0  0  0
   -5.8755   16.1697   28.0139 H   0  0  0  0  0  0  0  0  0  0  0  0
   -3.6944   15.8296   26.9163 H   0  0  0  0  0  0  0  0  0  0  0  0
   -2.9074   17.4281   25.1865 H   0  0  0  0  0  0  0  0  0  0  0  0
   -4.3239   19.3696   24.5642 H   0  0  0  0  0  0  0  0  0  0  0  0
   -6.5053   19.7334   25.6635 H   0  0  0  0  0  0  0  0  0  0  0  0
  -11.3743   15.1666   27.2249 H   0  0  0  0  0  0  0  0  0  0  0  0
  -12.5977   16.2243   27.9000 H   0  0  0  0  0  0  0  0  0  0  0  0
  -13.4846   15.7143   30.2823 H   0  0  0  0  0  0  0  0  0  0  0  0
  -14.5738   13.8791   31.5342 H   0  0  0  0  0  0  0  0  0  0  0  0
  -14.1125   11.5186   30.9099 H   0  0  0  0  0  0  0  0  0  0  0  0
  -12.5597   11.0011   29.0480 H   0  0  0  0  0  0  0  0  0  0  0  0
  -11.4463   12.8285   27.7984 H   0  0  0  0  0  0  0  0  0  0  0  0
   -8.1468   14.4614   30.2175 H   0  0  0  0  0  0  0  0  0  0  0  0
   -9.8937   14.2898   30.5103 H   0  0  0  0  0  0  0  0  0  0  0  0
   -8.5174   17.0009   31.1112 H   0  0  0  0  0  0  0  0  0  0  0  0
   -9.3613   16.6542   33.3613 H   0  0  0  0  0  0  0  0  0  0  0  0
   -9.9225   14.9425   32.9106 H   0  0  0  0  0  0  0  0  0  0  0  0
  1  6  2  0  0  0  0
  2  8  1  0  0  0  0
  2 31  1  0  0  0  0
  3  9  1  0  0  0  0
  3 32  1  0  0  0  0
  4  6  1  0  0  0  0
  4  7  1  0  0  0  0
  4 11  1  0  0  0  0
  5  6  1  0  0  0  0
  5 10  1  0  0  0  0
  5 28  1  0  0  0  0
  7  8  1  0  0  0  0
  7 14  1  0  0  0  0
  7 33  1  6  0  0  0
  8  9  1  0  0  0  0
  8 34  1  6  0  0  0
  9 10  1  0  0  0  0
  9 35  1  1  0  0  0
 10 21  1  0  0  0  0
 10 36  1  1  0  0  0
 11 12  1  0  0  0  0
 11 37  1  0  0  0  0
 11 38  1  0  0  0  0
 12 13  2  0  0  0  0
 12 39  1  0  0  0  0
 13 40  1  0  0  0  0
 13 41  1  0  0  0  0
 14 15  1  0  0  0  0
 14 42  1  0  0  0  0
 14 43  1  0  0  0  0
 15 20  2  0  0  0  0
 15 16  1  0  0  0  0
 16 17  2  0  0  0  0
 16 44  1  0  0  0  0
 17 18  1  0  0  0  0
 17 45  1  0  0  0  0
 18 19  2  0  0  0  0
 18 46  1  0  0  0  0
 19 20  1  0  0  0  0
 19 47  1  0  0  0  0
 20 48  1  0  0  0  0
 21 22  1  0  0  0  0
 21 49  1  0  0  0  0
 21 50  1  0  0  0  0
 22 27  2  0  0  0  0
 22 23  1  0  0  0  0
 23 24  2  0  0  0  0
 23 51  1  0  0  0  0
 24 25  1  0  0  0  0
 24 52  1  0  0  0  0
 25 26  2  0  0  0  0
 25 53  1  0  0  0  0
 26 27  1  0  0  0  0
 26 54  1  0  0  0  0
 27 55  1  0  0  0  0
 28 29  1  0  0  0  0
 28 56  1  0  0  0  0
 28 57  1  0  0  0  0
 29 30  2  0  0  0  0
 29 58  1  0  0  0  0
 30 59  1  0  0  0  0
 30 60  1  0  0  0  0
M  END
$$$$
