254
 OpenBabel04041914393D

 56 59  0  0  0  0  0  0  0  0999 V2000
   34.5220   18.2411   88.4494 C   0  0  0  0  0  0  0  0  0  0  0  0
   35.5175   17.2632   87.8736 C   0  0  0  0  0  0  0  0  0  0  0  0
   35.6198   15.9551   88.4261 C   0  0  0  0  0  0  0  0  0  0  0  0
   36.5245   15.0582   87.8890 C   0  0  0  0  0  0  0  0  0  0  0  0
   37.3467   15.4130   86.8104 C   0  0  0  0  0  0  0  0  0  0  0  0
   37.2491   16.7128   86.2621 C   0  0  0  0  0  0  0  0  0  0  0  0
   36.3367   17.6220   86.8007 C   0  0  0  0  0  0  0  0  0  0  0  0
   42.8606   14.1173   82.0626 C   0  0  0  0  0  0  0  0  0  0  0  0
   43.2505   13.3738   80.7948 C   0  0  0  0  0  0  0  0  0  0  0  0
   44.6777   13.7217   80.3484 C   0  0  0  0  0  0  0  0  0  0  0  0
   44.9977   15.1890   80.4790 C   0  0  0  0  0  0  0  0  0  0  0  0
   44.8636   15.7131   81.9109 C   0  0  0  0  0  0  0  0  0  0  0  0
   43.6057   15.1870   82.5758 C   0  0  0  0  0  0  0  0  0  0  0  0
   42.2547   13.7027   79.6748 C   0  0  0  0  0  0  0  0  0  0  0  0
   43.2206   11.8583   81.0440 C   0  0  0  0  0  0  0  0  0  0  0  0
   44.7664   17.2338   81.7542 C   0  0  0  0  0  0  0  0  0  0  0  0
   46.0796   15.3905   82.7976 C   0  0  0  0  0  0  0  0  0  0  0  0
   33.9228   17.9040   89.5164 O   0  0  0  0  0  0  0  0  0  0  0  0
   34.3546   19.3215   87.8307 O   0  0  0  0  0  0  0  0  0  0  0  0
   38.2612   14.4850   86.2803 C   0  0  0  0  0  0  0  0  0  0  0  0
   39.0836   14.8230   85.2034 C   0  0  0  0  0  0  0  0  0  0  0  0
   38.9684   16.1174   84.6725 C   0  0  0  0  0  0  0  0  0  0  0  0
   38.0726   17.0520   85.1885 C   0  0  0  0  0  0  0  0  0  0  0  0
   41.2897   14.3838   83.9214 C   0  0  0  0  0  0  0  0  0  0  0  0
   41.6962   13.7438   82.7484 C   0  0  0  0  0  0  0  0  0  0  0  0
   43.1929   15.8104   83.7625 C   0  0  0  0  0  0  0  0  0  0  0  0
   42.0618   15.4215   84.4337 C   0  0  0  0  0  0  0  0  0  0  0  0
   40.0524   13.8587   84.5762 C   0  0  0  0  0  0  0  0  0  0  0  0
   39.9284   12.5610   84.4888 N   0  0  0  0  0  0  0  0  0  0  0  0
   38.7902   11.9904   85.0480 O   0  0  0  0  0  0  0  0  0  0  0  0
   34.9790   15.6862   89.2580 H   0  0  0  0  0  0  0  0  0  0  0  0
   36.5833   14.0720   88.3271 H   0  0  0  0  0  0  0  0  0  0  0  0
   36.2428   18.6280   86.3941 H   0  0  0  0  0  0  0  0  0  0  0  0
   44.8219   13.4345   79.3003 H   0  0  0  0  0  0  0  0  0  0  0  0
   45.3966   13.1628   80.9537 H   0  0  0  0  0  0  0  0  0  0  0  0
   44.3153   15.7514   79.8295 H   0  0  0  0  0  0  0  0  0  0  0  0
   46.0144   15.3697   80.1136 H   0  0  0  0  0  0  0  0  0  0  0  0
   41.2325   13.4350   79.9645 H   0  0  0  0  0  0  0  0  0  0  0  0
   42.4978   13.1493   78.7615 H   0  0  0  0  0  0  0  0  0  0  0  0
   42.2671   14.7731   79.4412 H   0  0  0  0  0  0  0  0  0  0  0  0
   42.2255   11.5145   81.3407 H   0  0  0  0  0  0  0  0  0  0  0  0
   43.9176   11.5970   81.8475 H   0  0  0  0  0  0  0  0  0  0  0  0
   43.5021   11.3035   80.1443 H   0  0  0  0  0  0  0  0  0  0  0  0
   44.6902   17.7452   82.7158 H   0  0  0  0  0  0  0  0  0  0  0  0
   43.8788   17.4905   81.1654 H   0  0  0  0  0  0  0  0  0  0  0  0
   45.6513   17.6206   81.2428 H   0  0  0  0  0  0  0  0  0  0  0  0
   46.1945   14.3145   82.9643 H   0  0  0  0  0  0  0  0  0  0  0  0
   45.9852   15.8610   83.7868 H   0  0  0  0  0  0  0  0  0  0  0  0
   47.0029   15.7739   82.3526 H   0  0  0  0  0  0  0  0  0  0  0  0
   38.3194   13.4962   86.7212 H   0  0  0  0  0  0  0  0  0  0  0  0
   39.5757   16.4167   83.8248 H   0  0  0  0  0  0  0  0  0  0  0  0
   38.0259   18.0396   84.7380 H   0  0  0  0  0  0  0  0  0  0  0  0
   41.0798   12.9252   82.3765 H   0  0  0  0  0  0  0  0  0  0  0  0
   43.7767   16.6275   84.1741 H   0  0  0  0  0  0  0  0  0  0  0  0
   41.7919   15.9416   85.3533 H   0  0  0  0  0  0  0  0  0  0  0  0
   38.0502   12.3842   84.5617 H   0  0  0  0  0  0  0  0  0  0  0  0
  1 19  2  0  0  0  0
  1 18  1  0  0  0  0
  1  2  1  0  0  0  0
  2  7  2  0  0  0  0
  2  3  1  0  0  0  0
  3  4  2  0  0  0  0
  3 31  1  0  0  0  0
  4  5  1  0  0  0  0
  4 32  1  0  0  0  0
  5 20  2  0  0  0  0
  5  6  1  0  0  0  0
  6 23  2  0  0  0  0
  6  7  1  0  0  0  0
  7 33  1  0  0  0  0
  8 25  2  0  0  0  0
  8 13  1  0  0  0  0
  8  9  1  0  0  0  0
  9 15  1  0  0  0  0
  9 14  1  0  0  0  0
  9 10  1  0  0  0  0
 10 11  1  0  0  0  0
 10 34  1  0  0  0  0
 10 35  1  0  0  0  0
 11 12  1  0  0  0  0
 11 36  1  0  0  0  0
 11 37  1  0  0  0  0
 12 17  1  0  0  0  0
 12 16  1  0  0  0  0
 12 13  1  0  0  0  0
 13 26  2  0  0  0  0
 14 38  1  0  0  0  0
 14 39  1  0  0  0  0
 14 40  1  0  0  0  0
 15 41  1  0  0  0  0
 15 42  1  0  0  0  0
 15 43  1  0  0  0  0
 16 44  1  0  0  0  0
 16 45  1  0  0  0  0
 16 46  1  0  0  0  0
 17 47  1  0  0  0  0
 17 48  1  0  0  0  0
 17 49  1  0  0  0  0
 20 21  1  0  0  0  0
 20 50  1  0  0  0  0
 21 22  2  0  0  0  0
 21 28  1  0  0  0  0
 22 23  1  0  0  0  0
 22 51  1  0  0  0  0
 23 52  1  0  0  0  0
 24 28  1  0  0  0  0
 24 27  2  0  0  0  0
 24 25  1  0  0  0  0
 25 53  1  0  0  0  0
 26 27  1  0  0  0  0
 26 54  1  0  0  0  0
 27 55  1  0  0  0  0
 28 29  2  0  0  0  0
 29 30  1  0  0  0  0
 30 56  1  0  0  0  0
M  END
$$$$
