2GP
 OpenBabel04041916443D

 36 38  0  0  1  0  0  0  0  0999 V2000
   19.7752   35.4174   19.1575 P   0  0  0  0  0  0  0  0  0  0  0  0
   20.8173   35.1755   18.0766 O   0  0  0  0  0  0  0  0  0  0  0  0
   20.1085   36.5496   20.1166 O   0  0  0  0  0  0  0  0  0  0  0  0
   18.3355   35.3948   18.6699 O   0  0  0  0  0  0  0  0  0  0  0  0
   17.7483   34.8023   24.0726 O   0  0  0  0  0  0  0  0  0  0  0  0
   18.7596   33.9445   24.5709 C   0  0  0  0  0  0  0  0  0  0  0  0
   19.4278   33.0617   23.5150 C   0  0  1  0  0  0  0  0  0  0  0  0
   18.4294   32.2720   22.8354 O   0  0  0  0  0  0  0  0  0  0  0  0
   20.2271   33.7869   22.4359 C   0  0  1  0  0  0  0  0  0  0  0  0
   21.3070   32.8758   22.0810 O   0  0  0  0  0  0  0  0  0  0  0  0
   19.2173   33.9578   21.2923 C   0  0  1  0  0  0  0  0  0  0  0  0
   19.9124   34.0723   20.0672 O   0  0  0  0  0  0  0  0  0  0  0  0
   18.4857   32.6053   21.4123 C   0  0  2  0  0  0  0  0  0  0  0  0
   17.1613   32.4286   20.8803 N   0  3  0  0  0  0  0  0  0  0  0  0
   16.7705   31.3613   20.1086 C   0  0  0  0  0  0  0  0  0  0  0  0
   15.4422   31.2515   20.0055 N   0  0  0  0  0  0  0  0  0  0  0  0
   14.9782   32.3305   20.7091 C   0  0  0  0  0  0  0  0  0  0  0  0
   13.6214   32.7697   20.9865 C   0  0  0  0  0  0  0  0  0  0  0  0
   12.5858   32.2180   20.6253 O   0  0  0  0  0  0  0  0  0  0  0  0
   13.6045   33.8890   21.8011 N   0  3  0  0  0  0  0  0  0  0  0  0
   14.7076   34.5239   22.3161 C   0  0  0  0  0  0  0  0  0  0  0  0
   14.4625   35.5742   23.1169 N   0  0  0  0  0  0  0  0  0  0  0  0
   15.9186   34.1152   22.1046 N   0  0  0  0  0  0  0  0  0  0  0  0
   16.0104   33.0492   21.2795 C   0  0  0  0  0  0  0  0  0  0  0  0
   17.1546   34.2571   23.5063 H   0  0  0  0  0  0  0  0  0  0  0  0
   18.2798   33.3104   25.3239 H   0  0  0  0  0  0  0  0  0  0  0  0
   19.5069   34.5610   25.0805 H   0  0  0  0  0  0  0  0  0  0  0  0
   20.0716   32.3534   24.0566 H   0  0  0  0  0  0  0  0  0  0  0  0
   20.7071   34.7099   22.7672 H   0  0  0  0  0  0  0  0  0  0  0  0
   21.7232   33.2894   21.2951 H   0  0  0  0  0  0  0  0  0  0  0  0
   18.5482   34.8027   21.4976 H   0  0  0  0  0  0  0  0  0  0  0  0
   19.1231   31.8326   20.9426 H   0  0  0  0  0  0  0  0  0  0  0  0
   17.4844   30.6691   19.6722 H   0  0  0  0  0  0  0  0  0  0  0  0
   12.6804   34.2457   22.0187 H   0  0  0  0  0  0  0  0  0  0  0  0
   15.2698   36.1285   23.3769 H   0  0  0  0  0  0  0  0  0  0  0  0
   13.5489   35.9594   23.2502 H   0  0  0  0  0  0  0  0  0  0  0  0
  1  2  2  0  0  0  0
  1  3  1  0  0  0  0
  1  4  1  0  0  0  0
  1 12  1  0  0  0  0
  5  6  1  0  0  0  0
  5 25  1  0  0  0  0
  6  7  1  0  0  0  0
  6 26  1  0  0  0  0
  6 27  1  0  0  0  0
  7  8  1  0  0  0  0
  7  9  1  0  0  0  0
  7 28  1  1  0  0  0
  8 13  1  0  0  0  0
  9 10  1  0  0  0  0
  9 11  1  0  0  0  0
  9 29  1  1  0  0  0
 10 30  1  0  0  0  0
 11 12  1  0  0  0  0
 11 13  1  0  0  0  0
 11 31  1  1  0  0  0
 13 14  1  0  0  0  0
 13 32  1  6  0  0  0
 14 15  2  0  0  0  0
 14 24  1  0  0  0  0
 15 16  1  0  0  0  0
 15 33  1  0  0  0  0
 16 17  1  0  0  0  0
 17 18  1  0  0  0  0
 17 24  2  0  0  0  0
 18 19  2  0  0  0  0
 18 20  1  0  0  0  0
 20 21  1  0  0  0  0
 20 34  1  0  0  0  0
 21 22  1  0  0  0  0
 21 23  2  0  0  0  0
 22 35  1  0  0  0  0
 22 36  1  0  0  0  0
 23 24  1  0  0  0  0
M  CHG  2  14   1  20   1
M  END
$$$$
