2GP
 OpenBabel04041914183D

 36 38  0  0  1  0  0  0  0  0999 V2000
   22.7174  -47.8412   -0.0734 P   0  0  0  0  0  0  0  0  0  0  0  0
   23.9917  -47.1257   -0.4613 O   0  0  0  0  0  0  0  0  0  0  0  0
   21.4574  -47.1141   -0.5432 O   0  0  0  0  0  0  0  0  0  0  0  0
   22.7227  -49.3457   -0.2842 O   0  0  0  0  0  0  0  0  0  0  0  0
   19.5604  -47.8365    3.9673 O   0  0  0  0  0  0  0  0  0  0  0  0
   19.5620  -46.4208    4.1132 C   0  0  0  0  0  0  0  0  0  0  0  0
   20.8896  -45.7660    3.7101 C   0  0  1  0  0  0  0  0  0  0  0  0
   21.9049  -46.4273    4.4865 O   0  0  0  0  0  0  0  0  0  0  0  0
   21.2880  -45.8255    2.2246 C   0  0  1  0  0  0  0  0  0  0  0  0
   21.3991  -44.4806    1.7013 O   0  0  0  0  0  0  0  0  0  0  0  0
   22.6778  -46.4505    2.1671 C   0  0  2  0  0  0  0  0  0  0  0  0
   22.6403  -47.7224    1.5583 O   0  0  0  0  0  0  0  0  0  0  0  0
   23.0688  -46.5322    3.6418 C   0  0  2  0  0  0  0  0  0  0  0  0
   23.8534  -47.6715    4.0587 N   0  3  0  0  0  0  0  0  0  0  0  0
   23.4362  -48.9163    4.4707 C   0  0  0  0  0  0  0  0  0  0  0  0
   24.4458  -49.6988    4.8210 N   0  0  0  0  0  0  0  0  0  0  0  0
   25.5435  -48.9334    4.5509 C   0  0  0  0  0  0  0  0  0  0  0  0
   26.9540  -49.2266    4.7018 C   0  0  0  0  0  0  0  0  0  0  0  0
   27.4493  -50.2821    5.0918 O   0  0  0  0  0  0  0  0  0  0  0  0
   27.7499  -48.1401    4.3905 N   0  3  0  0  0  0  0  0  0  0  0  0
   27.2888  -46.8859    4.0466 C   0  0  0  0  0  0  0  0  0  0  0  0
   28.2401  -45.9327    3.8827 N   0  0  0  0  0  0  0  0  0  0  0  0
   26.0280  -46.5995    3.9046 N   0  0  0  0  0  0  0  0  0  0  0  0
   25.2113  -47.6672    4.1617 C   0  0  0  0  0  0  0  0  0  0  0  0
   20.3952  -48.1559    4.3563 H   0  0  0  0  0  0  0  0  0  0  0  0
   19.3847  -46.2434    5.1829 H   0  0  0  0  0  0  0  0  0  0  0  0
   18.7166  -46.0110    3.5573 H   0  0  0  0  0  0  0  0  0  0  0  0
   20.8392  -44.7166    4.0368 H   0  0  0  0  0  0  0  0  0  0  0  0
   20.5272  -46.3375    1.6325 H   0  0  0  0  0  0  0  0  0  0  0  0
   21.7319  -44.6489    0.7859 H   0  0  0  0  0  0  0  0  0  0  0  0
   23.4097  -45.8044    1.6617 H   0  0  0  0  0  0  0  0  0  0  0  0
   23.6511  -45.6363    3.8942 H   0  0  0  0  0  0  0  0  0  0  0  0
   22.3963  -49.2124    4.5082 H   0  0  0  0  0  0  0  0  0  0  0  0
   28.7393  -48.2888    4.4890 H   0  0  0  0  0  0  0  0  0  0  0  0
   27.9313  -45.0834    3.4239 H   0  0  0  0  0  0  0  0  0  0  0  0
   29.2099  -46.1835    3.7853 H   0  0  0  0  0  0  0  0  0  0  0  0
  1  2  2  0  0  0  0
  1  3  1  0  0  0  0
  1  4  1  0  0  0  0
  1 12  1  0  0  0  0
  5  6  1  0  0  0  0
  5 25  1  0  0  0  0
  6  7  1  0  0  0  0
  6 26  1  0  0  0  0
  6 27  1  0  0  0  0
  7  8  1  0  0  0  0
  7  9  1  0  0  0  0
  7 28  1  1  0  0  0
  8 13  1  0  0  0  0
  9 10  1  0  0  0  0
  9 11  1  0  0  0  0
  9 29  1  6  0  0  0
 10 30  1  0  0  0  0
 11 12  1  0  0  0  0
 11 13  1  0  0  0  0
 11 31  1  6  0  0  0
 13 14  1  0  0  0  0
 13 32  1  1  0  0  0
 14 15  2  0  0  0  0
 14 24  1  0  0  0  0
 15 16  1  0  0  0  0
 15 33  1  0  0  0  0
 16 17  1  0  0  0  0
 17 18  1  0  0  0  0
 17 24  2  0  0  0  0
 18 19  2  0  0  0  0
 18 20  1  0  0  0  0
 20 21  1  0  0  0  0
 20 34  1  0  0  0  0
 21 22  1  0  0  0  0
 21 23  2  0  0  0  0
 22 35  1  0  0  0  0
 22 36  1  0  0  0  0
 23 24  1  0  0  0  0
M  CHG  2  14   1  20   1
M  END
$$$$
