334
 OpenBabel04041916053D

 35 37  0  0  0  0  0  0  0  0999 V2000
   44.1916   -3.0803   26.0972 C   0  0  0  0  0  0  0  0  0  0  0  0
   44.6358   -1.7338   26.1640 C   0  0  0  0  0  0  0  0  0  0  0  0
   44.6116   -0.9943   27.3324 C   0  0  0  0  0  0  0  0  0  0  0  0
   44.1328   -1.6775   28.4187 C   0  0  0  0  0  0  0  0  0  0  0  0
   43.6799   -2.9795   28.4348 C   0  0  0  0  0  0  0  0  0  0  0  0
   43.7021   -3.7031   27.2504 C   0  0  0  0  0  0  0  0  0  0  0  0
   44.2696   -3.7794   24.8217 C   0  0  0  0  0  0  0  0  0  0  0  0
   43.8955   -5.0354   24.7314 N   0  0  0  0  0  0  0  0  0  0  0  0
   44.7149   -3.1552   23.7650 N   0  0  0  0  0  0  0  0  0  0  0  0
   43.9844   -1.2586   29.6848 N   0  3  0  0  0  0  0  0  0  0  0  0
   43.2791   -3.3483   29.6866 N   0  0  0  0  0  0  0  0  0  0  0  0
   43.4647   -2.2780   30.4282 C   0  0  0  0  0  0  0  0  0  0  0  0
   43.2225   -2.0785   31.8401 C   0  0  0  0  0  0  0  0  0  0  0  0
   42.8958   -3.1841   32.6313 C   0  0  0  0  0  0  0  0  0  0  0  0
   42.6917   -3.0165   34.0007 C   0  0  0  0  0  0  0  0  0  0  0  0
   42.3277   -4.1867   34.8633 C   0  0  0  0  0  0  0  0  0  0  0  0
   42.8324   -1.7376   34.5637 C   0  0  0  0  0  0  0  0  0  0  0  0
   43.1810   -0.6372   33.7844 C   0  0  0  0  0  0  0  0  0  0  0  0
   43.3674   -0.8052   32.4213 C   0  0  0  0  0  0  0  0  0  0  0  0
   43.7042    0.2690   31.6229 O   0  0  0  0  0  0  0  0  0  0  0  0
   43.4083    1.0628   34.5822 Br  0  0  0  0  0  0  0  0  0  0  0  0
   45.0188   -1.1925   25.3131 H   0  0  0  0  0  0  0  0  0  0  0  0
   44.9442    0.0333   27.3960 H   0  0  0  0  0  0  0  0  0  0  0  0
   43.3476   -4.7243   27.2976 H   0  0  0  0  0  0  0  0  0  0  0  0
   43.9349   -5.5441   23.8656 H   0  0  0  0  0  0  0  0  0  0  0  0
   45.0126   -2.1918   23.7792 H   0  0  0  0  0  0  0  0  0  0  0  0
   44.7803   -3.6097   22.8575 H   0  0  0  0  0  0  0  0  0  0  0  0
   44.1864   -0.3352   30.0415 H   0  0  0  0  0  0  0  0  0  0  0  0
   42.8095   -4.1675   32.1665 H   0  0  0  0  0  0  0  0  0  0  0  0
   42.1993   -3.8677   35.9024 H   0  0  0  0  0  0  0  0  0  0  0  0
   43.1173   -4.9441   34.8402 H   0  0  0  0  0  0  0  0  0  0  0  0
   41.3852   -4.6326   34.5306 H   0  0  0  0  0  0  0  0  0  0  0  0
   42.6645   -1.6102   35.6301 H   0  0  0  0  0  0  0  0  0  0  0  0
   44.4423    0.7338   32.0591 H   0  0  0  0  0  0  0  0  0  0  0  0
   43.5506   -5.5384   25.5413 H   0  0  0  0  0  0  0  0  0  0  0  0
  1  2  2  0  0  0  0
  1  6  1  0  0  0  0
  1  7  1  0  0  0  0
  2  3  1  0  0  0  0
  2 22  1  0  0  0  0
  3  4  2  0  0  0  0
  3 23  1  0  0  0  0
  4  5  1  0  0  0  0
  4 10  1  0  0  0  0
  5  6  2  0  0  0  0
  5 11  1  0  0  0  0
  6 24  1  0  0  0  0
  7  8  2  0  0  0  0
  7  9  1  0  0  0  0
  8 25  1  0  0  0  0
  8 35  1  0  0  0  0
  9 26  1  0  0  0  0
  9 27  1  0  0  0  0
 10 12  2  0  0  0  0
 10 28  1  0  0  0  0
 11 12  1  0  0  0  0
 12 13  1  0  0  0  0
 13 14  2  0  0  0  0
 13 19  1  0  0  0  0
 14 15  1  0  0  0  0
 14 29  1  0  0  0  0
 15 16  1  0  0  0  0
 15 17  2  0  0  0  0
 16 30  1  0  0  0  0
 16 31  1  0  0  0  0
 16 32  1  0  0  0  0
 17 18  1  0  0  0  0
 17 33  1  0  0  0  0
 18 19  2  0  0  0  0
 18 21  1  0  0  0  0
 19 20  1  0  0  0  0
 20 34  1  0  0  0  0
M  CHG  1  10   1
M  END
$$$$
