382
 OpenBabel04041917573D

 55 59  0  0  1  0  0  0  0  0999 V2000
   22.3307  -14.2913   25.6361 C   0  0  0  0  0  0  0  0  0  0  0  0
   22.0177  -14.9687   24.3044 C   0  0  0  0  0  0  0  0  0  0  0  0
   21.0862  -16.0819   24.4727 N   0  0  0  0  0  0  0  0  0  0  0  0
   19.8130  -15.6240   25.0973 C   0  0  2  0  0  0  0  0  0  0  0  0
   20.1005  -15.0502   26.4925 C   0  0  0  0  0  0  0  0  0  0  0  0
   21.0565  -13.8640   26.3583 C   0  0  0  0  0  0  0  0  0  0  0  0
   18.7039  -16.7094   25.1138 C   0  0  0  0  0  0  0  0  0  0  0  0
   19.2239  -17.9240   25.4495 F   0  0  0  0  0  0  0  0  0  0  0  0
   17.7746  -16.4313   26.0728 F   0  0  0  0  0  0  0  0  0  0  0  0
   17.9880  -16.8277   23.7568 C   0  0  0  0  0  0  0  0  0  0  0  0
   17.3464  -15.5843   23.3380 N   0  0  0  0  0  0  0  0  0  0  0  0
   17.7856  -14.8566   22.2581 C   0  0  0  0  0  0  0  0  0  0  0  0
   16.9699  -13.8555   21.6601 C   0  0  0  0  0  0  0  0  0  0  0  0
   17.4778  -13.1563   20.5777 C   0  0  0  0  0  0  0  0  0  0  0  0
   18.7364  -13.3337   20.0404 C   0  0  0  0  0  0  0  0  0  0  0  0
   19.4743  -14.3161   20.6962 C   0  0  0  0  0  0  0  0  0  0  0  0
   19.0347  -15.0539   21.7439 N   0  0  0  0  0  0  0  0  0  0  0  0
   15.6781  -13.4286   21.9318 N   0  0  0  0  0  0  0  0  0  0  0  0
   15.4506  -12.5231   21.0089 C   0  0  0  0  0  0  0  0  0  0  0  0
   16.5037  -12.2910   20.1506 O   0  0  0  0  0  0  0  0  0  0  0  0
   14.2034  -11.7503   20.6981 C   0  0  0  0  0  0  0  0  0  0  0  0
   13.0915  -11.7774   21.7350 C   0  0  0  0  0  0  0  0  0  0  0  0
   12.9061  -10.6238   22.5147 C   0  0  0  0  0  0  0  0  0  0  0  0
   11.9048  -10.5423   23.4968 C   0  0  0  0  0  0  0  0  0  0  0  0
   11.0728  -11.6297   23.7173 C   0  0  0  0  0  0  0  0  0  0  0  0
   11.2532  -12.8044   22.9928 C   0  0  0  0  0  0  0  0  0  0  0  0
   12.2530  -12.8831   22.0036 C   0  0  0  0  0  0  0  0  0  0  0  0
   12.3719  -14.1147   21.3193 N   0  3  0  0  0  0  0  0  0  0  0  0
   12.4033  -15.2979   21.9765 N   0  0  0  0  0  0  0  0  0  0  0  0
   12.6140  -16.1561   20.9767 C   0  0  0  0  0  0  0  0  0  0  0  0
   12.5489  -15.6215   19.7229 N   0  0  0  0  0  0  0  0  0  0  0  0
   12.3523  -14.3465   19.9680 C   0  0  0  0  0  0  0  0  0  0  0  0
   22.9691  -13.4181   25.4609 H   0  0  0  0  0  0  0  0  0  0  0  0
   22.8941  -14.9806   26.2767 H   0  0  0  0  0  0  0  0  0  0  0  0
   22.9456  -15.3506   23.8646 H   0  0  0  0  0  0  0  0  0  0  0  0
   21.6024  -14.2435   23.5945 H   0  0  0  0  0  0  0  0  0  0  0  0
   20.8789  -16.4744   23.5516 H   0  0  0  0  0  0  0  0  0  0  0  0
   19.4334  -14.7833   24.5113 H   0  0  0  0  0  0  0  0  0  0  0  0
   20.5266  -15.8132   27.1564 H   0  0  0  0  0  0  0  0  0  0  0  0
   19.1723  -14.6973   26.9541 H   0  0  0  0  0  0  0  0  0  0  0  0
   20.5666  -13.0671   25.7811 H   0  0  0  0  0  0  0  0  0  0  0  0
   21.2927  -13.4460   27.3405 H   0  0  0  0  0  0  0  0  0  0  0  0
   17.1996  -17.5835   23.8535 H   0  0  0  0  0  0  0  0  0  0  0  0
   18.6773  -17.2165   22.9994 H   0  0  0  0  0  0  0  0  0  0  0  0
   16.4648  -15.3043   23.7620 H   0  0  0  0  0  0  0  0  0  0  0  0
   19.1102  -12.7714   19.1965 H   0  0  0  0  0  0  0  0  0  0  0  0
   20.4856  -14.5447   20.3688 H   0  0  0  0  0  0  0  0  0  0  0  0
   13.8059  -12.0776   19.7318 H   0  0  0  0  0  0  0  0  0  0  0  0
   14.4972  -10.7044   20.5267 H   0  0  0  0  0  0  0  0  0  0  0  0
   13.5516   -9.7515   22.3867 H   0  0  0  0  0  0  0  0  0  0  0  0
   11.7816   -9.6369   24.0774 H   0  0  0  0  0  0  0  0  0  0  0  0
   10.2748  -11.5659   24.4606 H   0  0  0  0  0  0  0  0  0  0  0  0
   10.5883  -13.6475   23.1760 H   0  0  0  0  0  0  0  0  0  0  0  0
   12.7976  -17.2061   21.1638 H   0  0  0  0  0  0  0  0  0  0  0  0
   12.1452  -13.5782   19.2388 H   0  0  0  0  0  0  0  0  0  0  0  0
  1  2  1  0  0  0  0
  1  6  1  0  0  0  0
  1 33  1  0  0  0  0
  1 34  1  0  0  0  0
  2  3  1  0  0  0  0
  2 35  1  0  0  0  0
  2 36  1  0  0  0  0
  3  4  1  0  0  0  0
  3 37  1  0  0  0  0
  4  5  1  0  0  0  0
  4  7  1  0  0  0  0
  4 38  1  6  0  0  0
  5  6  1  0  0  0  0
  5 39  1  0  0  0  0
  5 40  1  0  0  0  0
  6 41  1  0  0  0  0
  6 42  1  0  0  0  0
  7  8  1  0  0  0  0
  7  9  1  0  0  0  0
  7 10  1  0  0  0  0
 10 11  1  0  0  0  0
 10 43  1  0  0  0  0
 10 44  1  0  0  0  0
 11 12  1  0  0  0  0
 11 45  1  0  0  0  0
 12 13  2  0  0  0  0
 12 17  1  0  0  0  0
 13 14  1  0  0  0  0
 13 18  1  0  0  0  0
 14 15  2  0  0  0  0
 14 20  1  0  0  0  0
 15 16  1  0  0  0  0
 15 46  1  0  0  0  0
 16 17  2  0  0  0  0
 16 47  1  0  0  0  0
 18 19  2  0  0  0  0
 19 20  1  0  0  0  0
 19 21  1  0  0  0  0
 21 22  1  0  0  0  0
 21 48  1  0  0  0  0
 21 49  1  0  0  0  0
 22 23  2  0  0  0  0
 22 27  1  0  0  0  0
 23 24  1  0  0  0  0
 23 50  1  0  0  0  0
 24 25  2  0  0  0  0
 24 51  1  0  0  0  0
 25 26  1  0  0  0  0
 25 52  1  0  0  0  0
 26 27  2  0  0  0  0
 26 53  1  0  0  0  0
 27 28  1  0  0  0  0
 28 29  1  0  0  0  0
 28 32  2  0  0  0  0
 29 30  1  0  0  0  0
 30 31  2  0  0  0  0
 30 54  1  0  0  0  0
 31 32  1  0  0  0  0
 32 55  1  0  0  0  0
M  CHG  1  28   1
M  END
$$$$
