3CH
 OpenBabel04041915333D

 13 13  0  0  0  0  0  0  0  0999 V2000
   26.7512    5.1626    3.2796 C   0  0  0  0  0  0  0  0  0  0  0  0
   27.5344    5.8291    2.3669 C   0  0  0  0  0  0  0  0  0  0  0  0
   26.5252    5.8270    4.4555 C   0  0  0  0  0  0  0  0  0  0  0  0
   28.0757    7.0880    2.6519 C   0  0  0  0  0  0  0  0  0  0  0  0
   27.0293    7.0697    4.7962 C   0  0  0  0  0  0  0  0  0  0  0  0
   27.8454    7.6878    3.8831 C   0  0  0  0  0  0  0  0  0  0  0  0
   28.3604    8.9179    4.1588 O   0  0  0  0  0  0  0  0  0  0  0  0
   25.5388    5.0352    5.6008 Cl  0  0  0  0  0  0  0  0  0  0  0  0
   26.3342    4.1706    3.0866 H   0  0  0  0  0  0  0  0  0  0  0  0
   27.7389    5.3559    1.3989 H   0  0  0  0  0  0  0  0  0  0  0  0
   28.6869    7.5941    1.9077 H   0  0  0  0  0  0  0  0  0  0  0  0
   26.8017    7.5030    5.7617 H   0  0  0  0  0  0  0  0  0  0  0  0
   29.3229    8.8266    4.0744 H   0  0  0  0  0  0  0  0  0  0  0  0
  1  3  2  0  0  0  0
  1  2  1  0  0  0  0
  1  9  1  0  0  0  0
  2  4  2  0  0  0  0
  2 10  1  0  0  0  0
  3  5  1  0  0  0  0
  3  8  1  0  0  0  0
  4  6  1  0  0  0  0
  4 11  1  0  0  0  0
  5  6  2  0  0  0  0
  5 12  1  0  0  0  0
  6  7  1  0  0  0  0
  7 13  1  0  0  0  0
M  END
$$$$
