3HA
 OpenBabel04041917043D

 17 17  0  0  0  0  0  0  0  0999 V2000
    8.2238   30.2033   23.7199 O   0  0  0  0  0  0  0  0  0  0  0  0
    7.6013   31.1571   23.1082 C   0  0  0  0  0  0  0  0  0  0  0  0
    7.2483   32.2528   23.6525 O   0  0  0  0  0  0  0  0  0  0  0  0
    7.3209   30.9928   21.6174 C   0  0  0  0  0  0  0  0  0  0  0  0
    6.7557   32.0729   20.9095 C   0  0  0  0  0  0  0  0  0  0  0  0
    6.4259   31.9786   19.5566 C   0  0  0  0  0  0  0  0  0  0  0  0
    6.6359   30.7899   18.8768 C   0  0  0  0  0  0  0  0  0  0  0  0
    7.1833   29.7124   19.5635 C   0  0  0  0  0  0  0  0  0  0  0  0
    7.3823   28.5268   18.8952 O   0  0  0  0  0  0  0  0  0  0  0  0
    7.5428   29.7847   20.9176 C   0  0  0  0  0  0  0  0  0  0  0  0
    8.2957   28.7355   21.4666 N   0  0  0  0  0  0  0  0  0  0  0  0
    6.5820   33.0104   21.4432 H   0  0  0  0  0  0  0  0  0  0  0  0
    5.9910   32.8381   19.0506 H   0  0  0  0  0  0  0  0  0  0  0  0
    6.3564   30.6997   17.8344 H   0  0  0  0  0  0  0  0  0  0  0  0
    7.9955   28.7540   18.1700 H   0  0  0  0  0  0  0  0  0  0  0  0
    8.3876   28.7865   22.4990 H   0  0  0  0  0  0  0  0  0  0  0  0
    8.2759   27.8381   20.9913 H   0  0  0  0  0  0  0  0  0  0  0  0
  1  2  2  0  0  0  0
  2  3  1  0  0  0  0
  2  4  1  0  0  0  0
  4  5  2  0  0  0  0
  4 10  1  0  0  0  0
  5  6  1  0  0  0  0
  5 12  1  0  0  0  0
  6  7  2  0  0  0  0
  6 13  1  0  0  0  0
  7  8  1  0  0  0  0
  7 14  1  0  0  0  0
  8  9  1  0  0  0  0
  8 10  2  0  0  0  0
  9 15  1  0  0  0  0
 10 11  1  0  0  0  0
 11 16  1  0  0  0  0
 11 17  1  0  0  0  0
M  END
$$$$
