3PG
 OpenBabel04041915053D

 15 14  0  0  1  0  0  0  0  0999 V2000
   46.4033   15.2206   -8.6559 C   0  0  0  0  0  0  0  0  0  0  0  0
   47.3193   15.5422   -7.8329 O   0  0  0  0  0  0  0  0  0  0  0  0
   45.1740   15.0492   -8.3853 O   0  0  0  0  0  0  0  0  0  0  0  0
   46.8683   14.7587  -10.0815 C   0  0  2  0  0  0  0  0  0  0  0  0
   47.2556   13.3445   -9.9932 O   0  0  0  0  0  0  0  0  0  0  0  0
   48.0764   15.5721  -10.5614 C   0  0  0  0  0  0  0  0  0  0  0  0
   47.6818   16.8152  -11.1308 O   0  0  0  0  0  0  0  0  0  0  0  0
   47.8213   16.9719  -12.7562 P   0  0  0  0  0  0  0  0  0  0  0  0
   49.3122   16.7668  -13.0430 O   0  0  0  0  0  0  0  0  0  0  0  0
   46.9257   15.8860  -13.3315 O   0  0  0  0  0  0  0  0  0  0  0  0
   47.3462   18.3935  -13.0455 O   0  0  0  0  0  0  0  0  0  0  0  0
   46.0419   14.8275  -10.7963 H   0  0  0  0  0  0  0  0  0  0  0  0
   47.9589   13.3573   -9.3218 H   0  0  0  0  0  0  0  0  0  0  0  0
   48.6726   14.9838  -11.2667 H   0  0  0  0  0  0  0  0  0  0  0  0
   48.7660   15.7927   -9.7353 H   0  0  0  0  0  0  0  0  0  0  0  0
  1  4  1  0  0  0  0
  1  3  2  0  0  0  0
  1  2  1  0  0  0  0
  4  6  1  0  0  0  0
  4  5  1  0  0  0  0
  4 12  1  6  0  0  0
  5 13  1  0  0  0  0
  6  7  1  0  0  0  0
  6 14  1  0  0  0  0
  6 15  1  0  0  0  0
  7  8  1  0  0  0  0
  8 11  2  0  0  0  0
  8 10  1  0  0  0  0
  8  9  1  0  0  0  0
M  END
$$$$
