429
 OpenBabel04041916403D

 66 67  0  0  1  0  0  0  0  0999 V2000
   34.3973   29.9905   19.7027 C   0  0  0  0  0  0  0  0  0  0  0  0
   33.7576   28.9944   20.4546 C   0  0  0  0  0  0  0  0  0  0  0  0
   32.3534   28.9603   20.4991 C   0  0  0  0  0  0  0  0  0  0  0  0
   31.5987   29.9304   19.8068 C   0  0  0  0  0  0  0  0  0  0  0  0
   32.2374   30.9376   19.0559 C   0  0  0  0  0  0  0  0  0  0  0  0
   33.6475   30.9603   19.0148 C   0  0  0  0  0  0  0  0  0  0  0  0
   34.5774   28.0785   21.0620 O   0  0  0  0  0  0  0  0  0  0  0  0
   31.3939   31.7381   16.7531 C   0  0  2  0  0  0  0  0  0  0  0  0
   30.5904   32.7720   16.0811 N   0  0  0  0  0  0  0  0  0  0  0  0
   30.8590   33.1996   14.7963 C   0  0  0  0  0  0  0  0  0  0  0  0
   30.7374   30.3742   16.4107 C   0  0  0  0  0  0  0  0  0  0  0  0
   29.3868   30.3399   16.7080 N   0  0  0  0  0  0  0  0  0  0  0  0
   28.7384   29.2050   17.3327 C   0  0  0  0  0  0  0  0  0  0  0  0
   27.4513   29.6807   18.0068 C   0  0  0  0  0  0  0  0  0  0  0  0
   26.3228   30.6291   20.0887 C   0  0  0  0  0  0  0  0  0  0  0  0
   27.6469   30.1451   19.4605 C   0  0  0  0  0  0  0  0  0  0  0  0
   25.9503   29.7420   21.1650 O   0  0  0  0  0  0  0  0  0  0  0  0
   31.9811   33.3856   14.3601 O   0  0  0  0  0  0  0  0  0  0  0  0
   29.6061   33.3878   13.9734 C   0  0  0  0  0  0  0  0  0  0  0  0
   34.1750   27.6783   22.3851 C   0  0  0  0  0  0  0  0  0  0  0  0
   31.3614   29.4041   16.0057 O   0  0  0  0  0  0  0  0  0  0  0  0
   31.4268   31.9683   18.2811 C   0  0  0  0  0  0  0  0  0  0  0  0
   35.1519   26.5842   22.8901 C   0  0  0  0  0  0  0  0  0  0  0  0
   36.0201   27.0064   23.6761 O   0  0  0  0  0  0  0  0  0  0  0  0
   34.9508   25.4040   22.4605 O   0  0  0  0  0  0  0  0  0  0  0  0
   24.6433   29.8295   21.6159 C   0  0  0  0  0  0  0  0  0  0  0  0
   24.0068   31.0801   21.8281 C   0  0  0  0  0  0  0  0  0  0  0  0
   22.6837   31.1484   22.3179 C   0  0  0  0  0  0  0  0  0  0  0  0
   21.9881   29.9692   22.6159 C   0  0  0  0  0  0  0  0  0  0  0  0
   22.6083   28.7222   22.4316 C   0  0  0  0  0  0  0  0  0  0  0  0
   23.9368   28.6330   21.9276 C   0  0  0  0  0  0  0  0  0  0  0  0
   24.5533   27.2755   21.7763 C   0  0  0  0  0  0  0  0  0  0  0  0
   24.6129   26.4799   22.7208 O   0  0  0  0  0  0  0  0  0  0  0  0
   24.9953   27.0027   20.5138 O   0  0  0  0  0  0  0  0  0  0  0  0
   25.5853   25.6924   20.3370 C   0  0  0  0  0  0  0  0  0  0  0  0
   21.8695   27.6000   22.7355 O   0  0  0  0  0  0  0  0  0  0  0  0
   35.7732   30.0558   19.6337 O   0  0  0  0  0  0  0  0  0  0  0  0
   31.8281   28.1895   21.0619 H   0  0  0  0  0  0  0  0  0  0  0  0
   30.5120   29.8889   19.8575 H   0  0  0  0  0  0  0  0  0  0  0  0
   34.1606   31.7317   18.4405 H   0  0  0  0  0  0  0  0  0  0  0  0
   32.4041   31.7378   16.3447 H   0  0  0  0  0  0  0  0  0  0  0  0
   29.8032   33.1795   16.5605 H   0  0  0  0  0  0  0  0  0  0  0  0
   28.8431   31.1482   16.4432 H   0  0  0  0  0  0  0  0  0  0  0  0
   29.4205   28.7696   18.0696 H   0  0  0  0  0  0  0  0  0  0  0  0
   28.5154   28.4534   16.5691 H   0  0  0  0  0  0  0  0  0  0  0  0
   26.7340   28.8543   18.0008 H   0  0  0  0  0  0  0  0  0  0  0  0
   27.0329   30.5122   17.4242 H   0  0  0  0  0  0  0  0  0  0  0  0
   26.4676   31.6444   20.4793 H   0  0  0  0  0  0  0  0  0  0  0  0
   25.5392   30.6341   19.3268 H   0  0  0  0  0  0  0  0  0  0  0  0
   28.3704   30.9729   19.4759 H   0  0  0  0  0  0  0  0  0  0  0  0
   28.0503   29.3173   20.0534 H   0  0  0  0  0  0  0  0  0  0  0  0
   29.8811   33.7188   12.9670 H   0  0  0  0  0  0  0  0  0  0  0  0
   28.9555   34.1325   14.4361 H   0  0  0  0  0  0  0  0  0  0  0  0
   29.0679   32.4345   13.8935 H   0  0  0  0  0  0  0  0  0  0  0  0
   33.1436   27.3212   22.3969 H   0  0  0  0  0  0  0  0  0  0  0  0
   34.2749   28.5357   23.0694 H   0  0  0  0  0  0  0  0  0  0  0  0
   31.8564   32.9655   18.4758 H   0  0  0  0  0  0  0  0  0  0  0  0
   30.3995   31.9845   18.6794 H   0  0  0  0  0  0  0  0  0  0  0  0
   24.5216   32.0168   21.6184 H   0  0  0  0  0  0  0  0  0  0  0  0
   22.1971   32.1146   22.4669 H   0  0  0  0  0  0  0  0  0  0  0  0
   20.9668   30.0278   22.9932 H   0  0  0  0  0  0  0  0  0  0  0  0
   25.9080   25.5971   19.2893 H   0  0  0  0  0  0  0  0  0  0  0  0
   24.8535   24.9029   20.5463 H   0  0  0  0  0  0  0  0  0  0  0  0
   26.4622   25.5672   20.9825 H   0  0  0  0  0  0  0  0  0  0  0  0
   20.9902   27.8545   23.0626 H   0  0  0  0  0  0  0  0  0  0  0  0
   36.1273   29.3116   20.1697 H   0  0  0  0  0  0  0  0  0  0  0  0
  1  2  2  0  0  0  0
  1  6  1  0  0  0  0
  1 37  1  0  0  0  0
  2  3  1  0  0  0  0
  2  7  1  0  0  0  0
  3  4  2  0  0  0  0
  3 38  1  0  0  0  0
  4  5  1  0  0  0  0
  4 39  1  0  0  0  0
  5  6  2  0  0  0  0
  5 22  1  0  0  0  0
  6 40  1  0  0  0  0
  7 20  1  0  0  0  0
  8  9  1  0  0  0  0
  8 11  1  0  0  0  0
  8 22  1  0  0  0  0
  8 41  1  6  0  0  0
  9 10  1  0  0  0  0
  9 42  1  0  0  0  0
 10 18  2  0  0  0  0
 10 19  1  0  0  0  0
 11 12  1  0  0  0  0
 11 21  2  0  0  0  0
 12 13  1  0  0  0  0
 12 43  1  0  0  0  0
 13 14  1  0  0  0  0
 13 44  1  0  0  0  0
 13 45  1  0  0  0  0
 14 16  1  0  0  0  0
 14 46  1  0  0  0  0
 14 47  1  0  0  0  0
 15 17  1  0  0  0  0
 15 16  1  0  0  0  0
 15 48  1  0  0  0  0
 15 49  1  0  0  0  0
 16 50  1  0  0  0  0
 16 51  1  0  0  0  0
 17 26  1  0  0  0  0
 19 52  1  0  0  0  0
 19 53  1  0  0  0  0
 19 54  1  0  0  0  0
 20 23  1  0  0  0  0
 20 55  1  0  0  0  0
 20 56  1  0  0  0  0
 22 57  1  0  0  0  0
 22 58  1  0  0  0  0
 23 24  2  0  0  0  0
 23 25  1  0  0  0  0
 26 27  2  0  0  0  0
 26 31  1  0  0  0  0
 27 28  1  0  0  0  0
 27 59  1  0  0  0  0
 28 29  2  0  0  0  0
 28 60  1  0  0  0  0
 29 30  1  0  0  0  0
 29 61  1  0  0  0  0
 30 31  2  0  0  0  0
 30 36  1  0  0  0  0
 31 32  1  0  0  0  0
 32 33  2  0  0  0  0
 32 34  1  0  0  0  0
 34 35  1  0  0  0  0
 35 62  1  0  0  0  0
 35 63  1  0  0  0  0
 35 64  1  0  0  0  0
 36 65  1  0  0  0  0
 37 66  1  0  0  0  0
M  END
$$$$
