43P
 OpenBabel04041917463D

 34 36  0  0  0  0  0  0  0  0999 V2000
   32.7742   32.2344   -3.8423 O   0  0  0  0  0  0  0  0  0  0  0  0
   33.9161   32.0782   -3.1104 C   0  0  0  0  0  0  0  0  0  0  0  0
   33.8472   31.6842   -1.7828 C   0  0  0  0  0  0  0  0  0  0  0  0
   35.0346   31.5326   -1.0639 C   0  0  0  0  0  0  0  0  0  0  0  0
   34.9919   31.2105    0.2631 O   0  0  0  0  0  0  0  0  0  0  0  0
   36.2857   31.7161   -1.6636 C   0  0  0  0  0  0  0  0  0  0  0  0
   37.5740   31.3279   -0.9896 C   0  0  0  0  0  0  0  0  0  0  0  0
   37.7697   29.8165   -1.0525 C   0  0  0  0  0  0  0  0  0  0  0  0
   36.3297   32.1743   -2.9763 C   0  0  0  0  0  0  0  0  0  0  0  0
   35.1461   32.3497   -3.7018 C   0  0  0  0  0  0  0  0  0  0  0  0
   35.2236   32.8378   -5.0471 C   0  0  0  0  0  0  0  0  0  0  0  0
   34.8644   32.1126   -6.1443 N   0  3  0  0  0  0  0  0  0  0  0  0
   35.0374   32.7704   -7.3103 N   0  0  0  0  0  0  0  0  0  0  0  0
   35.4805   33.9634   -6.9220 C   0  0  0  0  0  0  0  0  0  0  0  0
   35.5868   34.0654   -5.5229 C   0  0  0  0  0  0  0  0  0  0  0  0
   35.9871   35.2563   -4.8170 C   0  0  0  0  0  0  0  0  0  0  0  0
   36.6544   36.3053   -5.3842 C   0  0  0  0  0  0  0  0  0  0  0  0
   36.7755   37.2243   -4.3779 N   0  3  0  0  0  0  0  0  0  0  0  0
   36.1962   36.6804   -3.2659 C   0  0  0  0  0  0  0  0  0  0  0  0
   35.7195   35.4814   -3.4934 N   0  0  0  0  0  0  0  0  0  0  0  0
   32.3056   31.3814   -3.8303 H   0  0  0  0  0  0  0  0  0  0  0  0
   32.8853   31.5337   -1.3141 H   0  0  0  0  0  0  0  0  0  0  0  0
   34.4252   30.4286    0.3567 H   0  0  0  0  0  0  0  0  0  0  0  0
   37.5848   31.6681    0.0459 H   0  0  0  0  0  0  0  0  0  0  0  0
   38.4219   31.8113   -1.4961 H   0  0  0  0  0  0  0  0  0  0  0  0
   38.7126   29.5318   -0.5769 H   0  0  0  0  0  0  0  0  0  0  0  0
   37.7902   29.4598   -2.0894 H   0  0  0  0  0  0  0  0  0  0  0  0
   36.9572   29.2950   -0.5362 H   0  0  0  0  0  0  0  0  0  0  0  0
   37.2808   32.3987   -3.4503 H   0  0  0  0  0  0  0  0  0  0  0  0
   34.5121   31.1633   -6.1591 H   0  0  0  0  0  0  0  0  0  0  0  0
   35.7058   34.7272   -7.6455 H   0  0  0  0  0  0  0  0  0  0  0  0
   37.0205   36.4557   -6.3858 H   0  0  0  0  0  0  0  0  0  0  0  0
   37.1935   38.1245   -4.4470 H   0  0  0  0  0  0  0  0  0  0  0  0
   36.1506   37.2132   -2.3160 H   0  0  0  0  0  0  0  0  0  0  0  0
  1  2  1  0  0  0  0
  1 21  1  0  0  0  0
  2  3  2  0  0  0  0
  2 10  1  0  0  0  0
  3  4  1  0  0  0  0
  3 22  1  0  0  0  0
  4  5  1  0  0  0  0
  4  6  2  0  0  0  0
  5 23  1  0  0  0  0
  6  7  1  0  0  0  0
  6  9  1  0  0  0  0
  7  8  1  0  0  0  0
  7 24  1  0  0  0  0
  7 25  1  0  0  0  0
  8 26  1  0  0  0  0
  8 27  1  0  0  0  0
  8 28  1  0  0  0  0
  9 10  2  0  0  0  0
  9 29  1  0  0  0  0
 10 11  1  0  0  0  0
 11 12  2  0  0  0  0
 11 15  1  0  0  0  0
 12 13  1  0  0  0  0
 12 30  1  0  0  0  0
 13 14  1  0  0  0  0
 14 15  2  0  0  0  0
 14 31  1  0  0  0  0
 15 16  1  0  0  0  0
 16 17  2  0  0  0  0
 16 20  1  0  0  0  0
 17 18  1  0  0  0  0
 17 32  1  0  0  0  0
 18 19  2  0  0  0  0
 18 33  1  0  0  0  0
 19 20  1  0  0  0  0
 19 34  1  0  0  0  0
M  CHG  2  12   1  18   1
M  END
$$$$
