478
 OpenBabel04041916563D

 70 72  0  0  1  0  0  0  0  0999 V2000
    2.0165    2.7969   10.6425 C   0  0  0  0  0  0  0  0  0  0  0  0
    0.8258    1.0247   11.7380 C   0  0  0  0  0  0  0  0  0  0  0  0
    3.8114    0.1463   12.5173 C   0  0  0  0  0  0  0  0  0  0  0  0
    2.1570    1.3429   11.1050 C   0  0  2  0  0  0  0  0  0  0  0  0
    5.7197   -0.3375   14.1567 C   0  0  2  0  0  0  0  0  0  0  0  0
    5.1922   -0.7272   15.5958 C   0  0  1  0  0  0  0  0  0  0  0  0
    7.0390    0.4909   14.0027 C   0  0  0  0  0  0  0  0  0  0  0  0
    7.3979    0.8064   12.5164 C   0  0  0  0  0  0  0  0  0  0  0  0
    6.9837    2.0530   11.9527 C   0  0  0  0  0  0  0  0  0  0  0  0
    8.0824   -0.1291   11.6954 C   0  0  0  0  0  0  0  0  0  0  0  0
    7.2393    2.3685   10.5973 C   0  0  0  0  0  0  0  0  0  0  0  0
    8.3441    0.1957   10.3323 C   0  0  0  0  0  0  0  0  0  0  0  0
    7.9237    1.4397    9.7821 C   0  0  0  0  0  0  0  0  0  0  0  0
    5.7709   -1.8648   16.5203 C   0  0  0  0  0  0  0  0  0  0  0  0
    4.6062   -4.2474   16.2245 C   0  0  0  0  0  0  0  0  0  0  0  0
    3.1994   -3.7561   15.8056 C   0  0  0  0  0  0  0  0  0  0  0  0
    8.3527   -4.4407   15.8633 C   0  0  0  0  0  0  0  0  0  0  0  0
    9.5282   -3.7214   16.1509 C   0  0  0  0  0  0  0  0  0  0  0  0
   10.5126   -4.3513   16.9282 C   0  0  0  0  0  0  0  0  0  0  0  0
   10.2997   -5.6754   17.3722 C   0  0  0  0  0  0  0  0  0  0  0  0
    9.1294   -6.3804   17.0492 C   0  0  0  0  0  0  0  0  0  0  0  0
    8.1529   -5.7629   16.2820 C   0  0  0  0  0  0  0  0  0  0  0  0
    2.5486   -2.8573   16.8489 C   0  0  0  0  0  0  0  0  0  0  0  0
    3.1198   -3.1779   14.4065 C   0  0  0  0  0  0  0  0  0  0  0  0
   -0.0210    2.2767   11.6216 C   0  0  0  0  0  0  0  0  0  0  0  0
    4.6561    0.4661   13.4972 N   0  0  0  0  0  0  0  0  0  0  0  0
    5.8083   -3.3106   16.0837 N   0  0  0  0  0  0  0  0  0  0  0  0
   11.2479   -6.3165   18.1473 N   0  0  0  0  0  0  0  0  0  0  0  0
    3.1955    1.2658   12.1204 O   0  0  0  0  0  0  0  0  0  0  0  0
    3.6173   -1.0199   12.0770 O   0  0  0  0  0  0  0  0  0  0  0  0
    5.2766    0.4821   16.4042 O   0  0  0  0  0  0  0  0  0  0  0  0
    7.5982   -2.5485   14.2817 O   0  0  0  0  0  0  0  0  0  0  0  0
    6.5723   -4.8160   14.0365 O   0  0  0  0  0  0  0  0  0  0  0  0
    0.8394    3.3578   11.2503 O   0  0  0  0  0  0  0  0  0  0  0  0
    7.0484   -3.7220   14.8845 S   0  0  0  0  0  0  0  0  0  0  0  0
    1.8938    2.8528    9.5512 H   0  0  0  0  0  0  0  0  0  0  0  0
    2.8802    3.4071   10.9302 H   0  0  0  0  0  0  0  0  0  0  0  0
    0.9478    0.7531   12.7925 H   0  0  0  0  0  0  0  0  0  0  0  0
    0.3381    0.1929   11.2215 H   0  0  0  0  0  0  0  0  0  0  0  0
    2.4077    0.6904   10.2607 H   0  0  0  0  0  0  0  0  0  0  0  0
    5.8178   -1.2562   13.5896 H   0  0  0  0  0  0  0  0  0  0  0  0
    4.1150   -0.8992   15.4876 H   0  0  0  0  0  0  0  0  0  0  0  0
    7.8808   -0.0507   14.4465 H   0  0  0  0  0  0  0  0  0  0  0  0
    6.9633    1.4622   14.5292 H   0  0  0  0  0  0  0  0  0  0  0  0
    6.4517    2.7776   12.5843 H   0  0  0  0  0  0  0  0  0  0  0  0
    8.4082   -1.1001   12.1113 H   0  0  0  0  0  0  0  0  0  0  0  0
    6.9047    3.3343   10.1898 H   0  0  0  0  0  0  0  0  0  0  0  0
    8.8776   -0.5273    9.6971 H   0  0  0  0  0  0  0  0  0  0  0  0
    8.1252    1.6900    8.7269 H   0  0  0  0  0  0  0  0  0  0  0  0
    5.1813   -1.8193   17.4641 H   0  0  0  0  0  0  0  0  0  0  0  0
    6.7833   -1.5455   16.7980 H   0  0  0  0  0  0  0  0  0  0  0  0
    4.7932   -5.1179   15.5779 H   0  0  0  0  0  0  0  0  0  0  0  0
    4.4924   -4.6395   17.2508 H   0  0  0  0  0  0  0  0  0  0  0  0
    2.5640   -4.6583   15.7845 H   0  0  0  0  0  0  0  0  0  0  0  0
    9.6726   -2.7003   15.7988 H   0  0  0  0  0  0  0  0  0  0  0  0
   11.4395   -3.8320   17.1953 H   0  0  0  0  0  0  0  0  0  0  0  0
    8.9919   -7.4048   17.4014 H   0  0  0  0  0  0  0  0  0  0  0  0
    7.2401   -6.2992   16.0257 H   0  0  0  0  0  0  0  0  0  0  0  0
    1.5632   -2.5285   16.5022 H   0  0  0  0  0  0  0  0  0  0  0  0
    3.1560   -1.9779   17.0382 H   0  0  0  0  0  0  0  0  0  0  0  0
    2.4196   -3.3981   17.7961 H   0  0  0  0  0  0  0  0  0  0  0  0
    3.5931   -3.8439   13.6802 H   0  0  0  0  0  0  0  0  0  0  0  0
    3.6158   -2.2230   14.3450 H   0  0  0  0  0  0  0  0  0  0  0  0
    2.0743   -3.0249   14.1079 H   0  0  0  0  0  0  0  0  0  0  0  0
   -0.5144    2.5149   12.5729 H   0  0  0  0  0  0  0  0  0  0  0  0
   -0.7938    2.1586   10.8503 H   0  0  0  0  0  0  0  0  0  0  0  0
    4.5577    1.4335   13.8013 H   0  0  0  0  0  0  0  0  0  0  0  0
   12.0963   -5.8265   18.3883 H   0  0  0  0  0  0  0  0  0  0  0  0
   11.0709   -7.2671   18.4530 H   0  0  0  0  0  0  0  0  0  0  0  0
    4.7598    0.3170   17.2138 H   0  0  0  0  0  0  0  0  0  0  0  0
  1  4  1  0  0  0  0
  1 34  1  0  0  0  0
  1 36  1  0  0  0  0
  1 37  1  0  0  0  0
  2  4  1  0  0  0  0
  2 25  1  0  0  0  0
  2 38  1  0  0  0  0
  2 39  1  0  0  0  0
  3 26  1  0  0  0  0
  3 29  1  0  0  0  0
  3 30  2  0  0  0  0
  4 29  1  0  0  0  0
  4 40  1  6  0  0  0
  5  6  1  0  0  0  0
  5  7  1  0  0  0  0
  5 26  1  0  0  0  0
  5 41  1  6  0  0  0
  6 14  1  0  0  0  0
  6 31  1  0  0  0  0
  6 42  1  6  0  0  0
  7  8  1  0  0  0  0
  7 43  1  0  0  0  0
  7 44  1  0  0  0  0
  8  9  2  0  0  0  0
  8 10  1  0  0  0  0
  9 11  1  0  0  0  0
  9 45  1  0  0  0  0
 10 12  2  0  0  0  0
 10 46  1  0  0  0  0
 11 13  2  0  0  0  0
 11 47  1  0  0  0  0
 12 13  1  0  0  0  0
 12 48  1  0  0  0  0
 13 49  1  0  0  0  0
 14 27  1  0  0  0  0
 14 50  1  0  0  0  0
 14 51  1  0  0  0  0
 15 16  1  0  0  0  0
 15 27  1  0  0  0  0
 15 52  1  0  0  0  0
 15 53  1  0  0  0  0
 16 23  1  0  0  0  0
 16 24  1  0  0  0  0
 16 54  1  0  0  0  0
 17 18  2  0  0  0  0
 17 22  1  0  0  0  0
 17 35  1  0  0  0  0
 18 19  1  0  0  0  0
 18 55  1  0  0  0  0
 19 20  2  0  0  0  0
 19 56  1  0  0  0  0
 20 21  1  0  0  0  0
 20 28  1  0  0  0  0
 21 22  2  0  0  0  0
 21 57  1  0  0  0  0
 22 58  1  0  0  0  0
 23 59  1  0  0  0  0
 23 60  1  0  0  0  0
 23 61  1  0  0  0  0
 24 62  1  0  0  0  0
 24 63  1  0  0  0  0
 24 64  1  0  0  0  0
 25 34  1  0  0  0  0
 25 65  1  0  0  0  0
 25 66  1  0  0  0  0
 26 67  1  0  0  0  0
 27 35  1  0  0  0  0
 28 68  1  0  0  0  0
 28 69  1  0  0  0  0
 31 70  1  0  0  0  0
 32 35  2  0  0  0  0
 33 35  2  0  0  0  0
M  END
$$$$
