478
 OpenBabel04041914583D

 70 72  0  0  1  0  0  0  0  0999 V2000
   11.1559   14.9745    2.4707 C   0  0  0  0  0  0  0  0  0  0  0  0
    9.1748   16.2192    2.9990 C   0  0  0  0  0  0  0  0  0  0  0  0
   10.1228   15.7467    5.9444 C   0  0  0  0  0  0  0  0  0  0  0  0
   10.0948   15.1564    3.5539 C   0  0  2  0  0  0  0  0  0  0  0  0
   10.9428   16.6611    8.1760 C   0  0  2  0  0  0  0  0  0  0  0  0
   10.3922   18.0922    8.5156 C   0  0  1  0  0  0  0  0  0  0  0  0
   12.3832   16.2811    8.6618 C   0  0  0  0  0  0  0  0  0  0  0  0
   12.8233   14.8918    8.1499 C   0  0  0  0  0  0  0  0  0  0  0  0
   13.6318   14.8002    6.9918 C   0  0  0  0  0  0  0  0  0  0  0  0
   12.3317   13.7029    8.7206 C   0  0  0  0  0  0  0  0  0  0  0  0
   13.8772   13.5668    6.3678 C   0  0  0  0  0  0  0  0  0  0  0  0
   12.5941   12.4629    8.1033 C   0  0  0  0  0  0  0  0  0  0  0  0
   13.3542   12.3951    6.9212 C   0  0  0  0  0  0  0  0  0  0  0  0
    9.7120   18.3505    9.8964 C   0  0  0  0  0  0  0  0  0  0  0  0
    7.3881   17.6687    9.2081 C   0  0  0  0  0  0  0  0  0  0  0  0
    6.2045   18.3981    9.8684 C   0  0  0  0  0  0  0  0  0  0  0  0
    8.8424   16.4599   12.8821 C   0  0  0  0  0  0  0  0  0  0  0  0
   10.0571   16.3941   13.5945 C   0  0  0  0  0  0  0  0  0  0  0  0
   10.0683   16.6934   14.9625 C   0  0  0  0  0  0  0  0  0  0  0  0
    8.8671   17.0192   15.6030 C   0  0  0  0  0  0  0  0  0  0  0  0
    7.6580   17.0020   14.9036 C   0  0  0  0  0  0  0  0  0  0  0  0
    7.6404   16.6943   13.5496 C   0  0  0  0  0  0  0  0  0  0  0  0
    6.1456   19.9087    9.6076 C   0  0  0  0  0  0  0  0  0  0  0  0
    4.8470   17.7068    9.7157 C   0  0  0  0  0  0  0  0  0  0  0  0
    9.7422   16.6198    1.6526 C   0  0  0  0  0  0  0  0  0  0  0  0
   10.9417   16.5121    6.7104 N   0  0  0  0  0  0  0  0  0  0  0  0
    8.5176   17.5298   10.2242 N   0  0  0  0  0  0  0  0  0  0  0  0
    8.8480   17.3310   16.9442 N   0  0  0  0  0  0  0  0  0  0  0  0
   10.7576   15.6768    4.7174 O   0  0  0  0  0  0  0  0  0  0  0  0
    9.0765   15.2668    6.2500 O   0  0  0  0  0  0  0  0  0  0  0  0
   11.4716   19.0415    8.4181 O   0  0  0  0  0  0  0  0  0  0  0  0
   10.0899   15.5572   10.8268 O   0  0  0  0  0  0  0  0  0  0  0  0
    7.5953   15.2232   10.9870 O   0  0  0  0  0  0  0  0  0  0  0  0
   11.0497   16.0651    1.5411 O   0  0  0  0  0  0  0  0  0  0  0  0
    8.7659   16.0396   11.1144 S   0  0  0  0  0  0  0  0  0  0  0  0
   10.9992   14.0455    1.9105 H   0  0  0  0  0  0  0  0  0  0  0  0
   12.1735   14.9702    2.8760 H   0  0  0  0  0  0  0  0  0  0  0  0
    8.1584   15.8359    2.8812 H   0  0  0  0  0  0  0  0  0  0  0  0
    9.1328   17.0903    3.6599 H   0  0  0  0  0  0  0  0  0  0  0  0
    9.5925   14.2098    3.7746 H   0  0  0  0  0  0  0  0  0  0  0  0
   10.2397   15.9211    8.5635 H   0  0  0  0  0  0  0  0  0  0  0  0
    9.6874   18.3672    7.7166 H   0  0  0  0  0  0  0  0  0  0  0  0
   12.4337   16.2958    9.7548 H   0  0  0  0  0  0  0  0  0  0  0  0
   13.1186   17.0177    8.2967 H   0  0  0  0  0  0  0  0  0  0  0  0
   14.0455   15.7077    6.5532 H   0  0  0  0  0  0  0  0  0  0  0  0
   11.7232   13.7416    9.6303 H   0  0  0  0  0  0  0  0  0  0  0  0
   14.4654   13.5315    5.4487 H   0  0  0  0  0  0  0  0  0  0  0  0
   12.1905   11.5468    8.5387 H   0  0  0  0  0  0  0  0  0  0  0  0
   13.5481   11.4357    6.4364 H   0  0  0  0  0  0  0  0  0  0  0  0
    9.3987   19.4188    9.9139 H   0  0  0  0  0  0  0  0  0  0  0  0
   10.4561   18.2703   10.6865 H   0  0  0  0  0  0  0  0  0  0  0  0
    7.7180   18.2417    8.3265 H   0  0  0  0  0  0  0  0  0  0  0  0
    7.1006   16.6802    8.8394 H   0  0  0  0  0  0  0  0  0  0  0  0
    6.4044   18.3231   10.9310 H   0  0  0  0  0  0  0  0  0  0  0  0
   10.9856   16.1058   13.1029 H   0  0  0  0  0  0  0  0  0  0  0  0
   10.9983   16.6674   15.5298 H   0  0  0  0  0  0  0  0  0  0  0  0
    6.7283   17.2230   15.4235 H   0  0  0  0  0  0  0  0  0  0  0  0
    6.6933   16.6398   13.0200 H   0  0  0  0  0  0  0  0  0  0  0  0
    5.2596   20.3434   10.0898 H   0  0  0  0  0  0  0  0  0  0  0  0
    6.1202   20.1747    8.5460 H   0  0  0  0  0  0  0  0  0  0  0  0
    7.0237   20.3866   10.0590 H   0  0  0  0  0  0  0  0  0  0  0  0
    4.9539   16.6260    9.8647 H   0  0  0  0  0  0  0  0  0  0  0  0
    4.3625   17.8807    8.7499 H   0  0  0  0  0  0  0  0  0  0  0  0
    4.1730   18.0701   10.5047 H   0  0  0  0  0  0  0  0  0  0  0  0
    9.1226   16.2359    0.8336 H   0  0  0  0  0  0  0  0  0  0  0  0
    9.7997   17.7096    1.5492 H   0  0  0  0  0  0  0  0  0  0  0  0
   11.6613   16.9887    6.1933 H   0  0  0  0  0  0  0  0  0  0  0  0
    9.7121   17.3722   17.4630 H   0  0  0  0  0  0  0  0  0  0  0  0
    7.9614   17.5018   17.3988 H   0  0  0  0  0  0  0  0  0  0  0  0
   11.0856   19.9295    8.5219 H   0  0  0  0  0  0  0  0  0  0  0  0
  1  4  1  0  0  0  0
  1 34  1  0  0  0  0
  1 36  1  0  0  0  0
  1 37  1  0  0  0  0
  2 25  1  0  0  0  0
  2  4  1  0  0  0  0
  2 38  1  0  0  0  0
  2 39  1  0  0  0  0
  3 30  2  0  0  0  0
  3 29  1  0  0  0  0
  3 26  1  0  0  0  0
  4 29  1  0  0  0  0
  4 40  1  1  0  0  0
  5  6  1  0  0  0  0
  5  7  1  0  0  0  0
  5 26  1  0  0  0  0
  5 41  1  1  0  0  0
  6 14  1  0  0  0  0
  6 31  1  0  0  0  0
  6 42  1  6  0  0  0
  7  8  1  0  0  0  0
  7 43  1  0  0  0  0
  7 44  1  0  0  0  0
  8  9  2  0  0  0  0
  8 10  1  0  0  0  0
  9 11  1  0  0  0  0
  9 45  1  0  0  0  0
 10 12  2  0  0  0  0
 10 46  1  0  0  0  0
 11 13  2  0  0  0  0
 11 47  1  0  0  0  0
 12 13  1  0  0  0  0
 12 48  1  0  0  0  0
 13 49  1  0  0  0  0
 14 27  1  0  0  0  0
 14 50  1  0  0  0  0
 14 51  1  0  0  0  0
 15 16  1  0  0  0  0
 15 27  1  0  0  0  0
 15 52  1  0  0  0  0
 15 53  1  0  0  0  0
 16 23  1  0  0  0  0
 16 24  1  0  0  0  0
 16 54  1  0  0  0  0
 17 18  2  0  0  0  0
 17 22  1  0  0  0  0
 17 35  1  0  0  0  0
 18 19  1  0  0  0  0
 18 55  1  0  0  0  0
 19 20  2  0  0  0  0
 19 56  1  0  0  0  0
 20 21  1  0  0  0  0
 20 28  1  0  0  0  0
 21 22  2  0  0  0  0
 21 57  1  0  0  0  0
 22 58  1  0  0  0  0
 23 59  1  0  0  0  0
 23 60  1  0  0  0  0
 23 61  1  0  0  0  0
 24 62  1  0  0  0  0
 24 63  1  0  0  0  0
 24 64  1  0  0  0  0
 25 34  1  0  0  0  0
 25 65  1  0  0  0  0
 25 66  1  0  0  0  0
 26 67  1  0  0  0  0
 27 35  1  0  0  0  0
 28 68  1  0  0  0  0
 28 69  1  0  0  0  0
 31 70  1  0  0  0  0
 32 35  2  0  0  0  0
 33 35  2  0  0  0  0
M  END
$$$$
