486
 OpenBabel04041915533D

 67 71  0  0  1  0  0  0  0  0999 V2000
   -4.5957   18.2563    3.5300 O   0  0  0  0  0  0  0  0  0  0  0  0
   -3.9779   17.1501    3.7466 C   0  0  0  0  0  0  0  0  0  0  0  0
   -4.6948   15.8696    4.0820 C   0  0  0  0  0  0  0  0  0  0  0  0
   -2.5172   17.0789    3.5278 C   0  0  0  0  0  0  0  0  0  0  0  0
   -2.0048   15.8722    3.2266 C   0  0  0  0  0  0  0  0  0  0  0  0
   -0.4925   15.7319    3.1054 C   0  0  0  0  0  0  0  0  0  0  0  0
   -2.9016   14.6696    3.1450 C   0  0  0  0  0  0  0  0  0  0  0  0
   -4.3972   15.0247    2.8556 C   0  0  0  0  0  0  0  0  0  0  0  0
   -2.3909   13.4525    3.5076 C   0  0  0  0  0  0  0  0  0  0  0  0
   -3.1837   12.0590    3.4960 C   0  0  1  0  0  0  0  0  0  0  0  0
   -3.1580   11.4094    2.0697 C   0  0  0  0  0  0  0  0  0  0  0  0
   -2.3541   12.0091    1.0682 C   0  0  0  0  0  0  0  0  0  0  0  0
   -2.2002   11.4671   -0.2255 C   0  0  0  0  0  0  0  0  0  0  0  0
   -2.8767   10.2894   -0.6073 C   0  0  0  0  0  0  0  0  0  0  0  0
   -2.7714    9.7273   -1.8910 N   0  0  0  0  0  0  0  0  0  0  0  0
   -3.5317    8.5081   -2.1732 C   0  0  0  0  0  0  0  0  0  0  0  0
   -2.3787   10.5037   -3.0747 C   0  0  0  0  0  0  0  0  0  0  0  0
   -3.6820    9.6826    0.4066 C   0  0  0  0  0  0  0  0  0  0  0  0
   -3.8396   10.2245    1.7156 C   0  0  0  0  0  0  0  0  0  0  0  0
   -2.6730   11.0418    4.5937 C   0  0  0  0  0  0  0  0  0  0  0  0
   -1.1940   11.0246    4.9741 C   0  0  2  0  0  0  0  0  0  0  0  0
   -0.4400   10.1570    3.8800 C   0  0  0  0  0  0  0  0  0  0  0  0
   -0.8370   10.3731    6.3676 C   0  0  1  0  0  0  0  0  0  0  0  0
   -1.6637   10.8127    7.5195 C   0  0  0  0  0  0  0  0  0  0  0  0
   -2.4099   11.0835    8.4359 C   0  0  0  0  0  0  0  0  0  0  0  0
   -3.1600   11.4423    9.6379 C   0  0  0  0  0  0  0  0  0  0  0  0
   -0.9051    8.9403    6.3241 O   0  0  0  0  0  0  0  0  0  0  0  0
    0.6194   10.8697    6.4836 C   0  0  0  0  0  0  0  0  0  0  0  0
    0.6727   12.2599    5.7789 C   0  0  0  0  0  0  0  0  0  0  0  0
   -0.7298   12.4915    5.1880 C   0  0  1  0  0  0  0  0  0  0  0  0
   -0.8428   13.3423    3.9096 C   0  0  2  0  0  0  0  0  0  0  0  0
   -0.0728   14.6935    4.1280 C   0  0  0  0  0  0  0  0  0  0  0  0
   -5.7731   15.9974    4.2814 H   0  0  0  0  0  0  0  0  0  0  0  0
   -4.2546   15.3908    4.9648 H   0  0  0  0  0  0  0  0  0  0  0  0
   -1.8808   17.9554    3.6389 H   0  0  0  0  0  0  0  0  0  0  0  0
    0.0295   16.6893    3.3114 H   0  0  0  0  0  0  0  0  0  0  0  0
   -0.1696   15.4187    2.1025 H   0  0  0  0  0  0  0  0  0  0  0  0
   -4.5610   15.6415    1.9439 H   0  0  0  0  0  0  0  0  0  0  0  0
   -5.0948   14.1753    2.7759 H   0  0  0  0  0  0  0  0  0  0  0  0
   -4.2544   12.2120    3.7697 H   0  0  0  0  0  0  0  0  0  0  0  0
   -1.8007   12.9195    1.2876 H   0  0  0  0  0  0  0  0  0  0  0  0
   -1.5492   12.0120   -0.9042 H   0  0  0  0  0  0  0  0  0  0  0  0
   -3.4048    8.1746   -3.2131 H   0  0  0  0  0  0  0  0  0  0  0  0
   -4.6052    8.6710   -2.0070 H   0  0  0  0  0  0  0  0  0  0  0  0
   -3.1906    7.6924   -1.5226 H   0  0  0  0  0  0  0  0  0  0  0  0
   -1.8069   11.3934   -2.8135 H   0  0  0  0  0  0  0  0  0  0  0  0
   -3.2563   10.8256   -3.6569 H   0  0  0  0  0  0  0  0  0  0  0  0
   -1.7457    9.9044   -3.7526 H   0  0  0  0  0  0  0  0  0  0  0  0
   -4.2476    8.7738    0.1750 H   0  0  0  0  0  0  0  0  0  0  0  0
   -4.4738    9.6896    2.4364 H   0  0  0  0  0  0  0  0  0  0  0  0
   -2.9010   10.0231    4.2731 H   0  0  0  0  0  0  0  0  0  0  0  0
   -3.2246   11.2471    5.5144 H   0  0  0  0  0  0  0  0  0  0  0  0
   -0.5804   10.5514    2.8722 H   0  0  0  0  0  0  0  0  0  0  0  0
   -0.8320    9.1225    3.8734 H   0  0  0  0  0  0  0  0  0  0  0  0
    0.6475   10.0596    4.0332 H   0  0  0  0  0  0  0  0  0  0  0  0
   -4.2326   11.2054    9.5888 H   0  0  0  0  0  0  0  0  0  0  0  0
   -3.0485   12.5168    9.8106 H   0  0  0  0  0  0  0  0  0  0  0  0
   -2.7279   10.9157   10.4957 H   0  0  0  0  0  0  0  0  0  0  0  0
   -1.8296    8.6471    6.2571 H   0  0  0  0  0  0  0  0  0  0  0  0
    1.3017   10.1682    5.9781 H   0  0  0  0  0  0  0  0  0  0  0  0
    0.9418   10.9464    7.5223 H   0  0  0  0  0  0  0  0  0  0  0  0
    1.4204   12.2462    4.9763 H   0  0  0  0  0  0  0  0  0  0  0  0
    0.9609   13.0346    6.5009 H   0  0  0  0  0  0  0  0  0  0  0  0
   -1.3699   13.0214    5.9324 H   0  0  0  0  0  0  0  0  0  0  0  0
   -0.3080   12.8272    3.0969 H   0  0  0  0  0  0  0  0  0  0  0  0
   -0.2803   15.0986    5.1311 H   0  0  0  0  0  0  0  0  0  0  0  0
    1.0216   14.5410    4.0728 H   0  0  0  0  0  0  0  0  0  0  0  0
  1  2  2  0  0  0  0
  2  3  1  0  0  0  0
  2  4  1  0  0  0  0
  3  8  1  0  0  0  0
  3 33  1  0  0  0  0
  3 34  1  0  0  0  0
  4  5  2  0  0  0  0
  4 35  1  0  0  0  0
  5  6  1  0  0  0  0
  5  7  1  0  0  0  0
  6 32  1  0  0  0  0
  6 36  1  0  0  0  0
  6 37  1  0  0  0  0
  7  8  1  0  0  0  0
  7  9  2  0  0  0  0
  8 38  1  0  0  0  0
  8 39  1  0  0  0  0
  9 10  1  0  0  0  0
  9 31  1  0  0  0  0
 10 11  1  0  0  0  0
 10 20  1  0  0  0  0
 10 40  1  1  0  0  0
 11 12  2  0  0  0  0
 11 19  1  0  0  0  0
 12 13  1  0  0  0  0
 12 41  1  0  0  0  0
 13 14  2  0  0  0  0
 13 42  1  0  0  0  0
 14 15  1  0  0  0  0
 14 18  1  0  0  0  0
 15 16  1  0  0  0  0
 15 17  1  0  0  0  0
 16 43  1  0  0  0  0
 16 44  1  0  0  0  0
 16 45  1  0  0  0  0
 17 46  1  0  0  0  0
 17 47  1  0  0  0  0
 17 48  1  0  0  0  0
 18 19  2  0  0  0  0
 18 49  1  0  0  0  0
 19 50  1  0  0  0  0
 20 21  1  0  0  0  0
 20 51  1  0  0  0  0
 20 52  1  0  0  0  0
 21 22  1  6  0  0  0
 21 23  1  0  0  0  0
 21 30  1  0  0  0  0
 22 53  1  0  0  0  0
 22 54  1  0  0  0  0
 22 55  1  0  0  0  0
 23 24  1  1  0  0  0
 23 27  1  0  0  0  0
 23 28  1  0  0  0  0
 24 25  3  0  0  0  0
 25 26  1  0  0  0  0
 26 56  1  0  0  0  0
 26 57  1  0  0  0  0
 26 58  1  0  0  0  0
 27 59  1  0  0  0  0
 28 29  1  0  0  0  0
 28 60  1  0  0  0  0
 28 61  1  0  0  0  0
 29 30  1  0  0  0  0
 29 62  1  0  0  0  0
 29 63  1  0  0  0  0
 30 31  1  0  0  0  0
 30 64  1  1  0  0  0
 31 32  1  0  0  0  0
 31 65  1  6  0  0  0
 32 66  1  0  0  0  0
 32 67  1  0  0  0  0
M  END
$$$$
