4AM
 OpenBabel04041914363D

 38 38  0  0  1  0  0  0  0  0999 V2000
   23.5882   19.8712   64.8114 C   0  0  0  0  0  0  0  0  0  0  0  0
   24.2551   20.9297   64.9501 O   0  0  0  0  0  0  0  0  0  0  0  0
   22.4345   19.5413   65.2343 O   0  0  0  0  0  0  0  0  0  0  0  0
   24.2893   18.7629   63.9427 C   0  0  0  0  0  0  0  0  0  0  0  0
   23.5922   17.6985   63.5189 C   0  0  0  0  0  0  0  0  0  0  0  0
   24.2072   16.6701   62.6707 C   0  0  2  0  0  0  0  0  0  0  0  0
   23.7671   15.3068   63.0677 N   0  3  0  0  0  0  0  0  0  0  0  0
   25.7558   16.7318   62.6603 C   0  0  1  0  0  0  0  0  0  0  0  0
   26.2739   15.9114   61.5478 N   0  0  0  0  0  0  0  0  0  0  0  0
   26.9319   14.7285   61.7787 C   0  0  0  0  0  0  0  0  0  0  0  0
   26.9593   14.2006   62.8835 O   0  0  0  0  0  0  0  0  0  0  0  0
   27.4823   14.0810   60.5440 C   0  0  0  0  0  0  0  0  0  0  0  0
   26.1995   18.2003   62.5832 C   0  0  1  0  0  0  0  0  0  0  0  0
   25.6185   18.9643   63.6462 O   0  0  0  0  0  0  0  0  0  0  0  0
   27.7320   18.3766   62.7344 C   0  0  2  0  0  0  0  0  0  0  0  0
   28.1303   17.8996   64.0249 O   0  0  0  0  0  0  0  0  0  0  0  0
   28.1353   19.8582   62.5538 C   0  0  2  0  0  0  0  0  0  0  0  0
   27.7948   20.2741   61.2195 O   0  0  0  0  0  0  0  0  0  0  0  0
   29.6327   20.1168   62.7655 C   0  0  0  0  0  0  0  0  0  0  0  0
   30.4187   19.4014   61.8138 O   0  0  0  0  0  0  0  0  0  0  0  0
   22.5414   17.6292   63.7956 H   0  0  0  0  0  0  0  0  0  0  0  0
   23.8259   16.7986   61.6510 H   0  0  0  0  0  0  0  0  0  0  0  0
   24.2122   14.5988   62.4739 H   0  0  0  0  0  0  0  0  0  0  0  0
   24.0595   15.1214   64.0362 H   0  0  0  0  0  0  0  0  0  0  0  0
   26.1149   16.3126   63.6127 H   0  0  0  0  0  0  0  0  0  0  0  0
   26.2870   16.3058   60.6076 H   0  0  0  0  0  0  0  0  0  0  0  0
   28.0167   13.1678   60.8099 H   0  0  0  0  0  0  0  0  0  0  0  0
   28.1677   14.7572   60.0256 H   0  0  0  0  0  0  0  0  0  0  0  0
   26.6504   13.8242   59.8791 H   0  0  0  0  0  0  0  0  0  0  0  0
   25.8727   18.6308   61.6242 H   0  0  0  0  0  0  0  0  0  0  0  0
   28.2407   17.7661   61.9799 H   0  0  0  0  0  0  0  0  0  0  0  0
   27.6525   18.4390   64.6871 H   0  0  0  0  0  0  0  0  0  0  0  0
   27.5834   20.4842   63.2657 H   0  0  0  0  0  0  0  0  0  0  0  0
   27.8248   21.2498   61.2244 H   0  0  0  0  0  0  0  0  0  0  0  0
   29.9555   19.8380   63.7724 H   0  0  0  0  0  0  0  0  0  0  0  0
   29.8482   21.1805   62.6175 H   0  0  0  0  0  0  0  0  0  0  0  0
   30.0890   19.6672   60.9365 H   0  0  0  0  0  0  0  0  0  0  0  0
   22.7468   15.2197   63.0173 H   0  0  0  0  0  0  0  0  0  0  0  0
  1  4  1  0  0  0  0
  1  3  2  0  0  0  0
  1  2  1  0  0  0  0
  4 14  1  0  0  0  0
  4  5  2  0  0  0  0
  5  6  1  0  0  0  0
  5 21  1  0  0  0  0
  6  8  1  0  0  0  0
  6  7  1  0  0  0  0
  6 22  1  6  0  0  0
  7 23  1  0  0  0  0
  7 24  1  0  0  0  0
  7 38  1  0  0  0  0
  8 13  1  0  0  0  0
  8  9  1  0  0  0  0
  8 25  1  1  0  0  0
  9 10  1  0  0  0  0
  9 26  1  0  0  0  0
 10 12  1  0  0  0  0
 10 11  2  0  0  0  0
 12 27  1  0  0  0  0
 12 28  1  0  0  0  0
 12 29  1  0  0  0  0
 13 15  1  0  0  0  0
 13 14  1  0  0  0  0
 13 30  1  6  0  0  0
 15 17  1  0  0  0  0
 15 16  1  0  0  0  0
 15 31  1  6  0  0  0
 16 32  1  0  0  0  0
 17 19  1  0  0  0  0
 17 18  1  0  0  0  0
 17 33  1  1  0  0  0
 18 34  1  0  0  0  0
 19 20  1  0  0  0  0
 19 35  1  0  0  0  0
 19 36  1  0  0  0  0
 20 37  1  0  0  0  0
M  CHG  1   7   1
M  END
$$$$
