4BC
 OpenBabel04041917463D

 42 45  0  0  0  0  0  0  0  0999 V2000
    2.2738   35.5397   -4.3757 C   0  0  0  0  0  0  0  0  0  0  0  0
    2.9391   36.3052   -3.4433 C   0  0  0  0  0  0  0  0  0  0  0  0
    4.2880   36.4661   -3.3629 O   0  0  0  0  0  0  0  0  0  0  0  0
    4.3690   37.3681   -2.2421 C   0  0  0  0  0  0  0  0  0  0  0  0
    3.1015   37.6753   -1.6420 O   0  0  0  0  0  0  0  0  0  0  0  0
    2.2525   36.9799   -2.4589 C   0  0  0  0  0  0  0  0  0  0  0  0
    0.8742   36.9385   -2.3400 C   0  0  0  0  0  0  0  0  0  0  0  0
    0.1800   36.1648   -3.2720 C   0  0  0  0  0  0  0  0  0  0  0  0
    0.8781   35.4950   -4.2952 C   0  0  0  0  0  0  0  0  0  0  0  0
    0.1405   34.6520   -5.2058 C   0  0  0  0  0  0  0  0  0  0  0  0
    0.0698   34.7690   -6.5708 C   0  0  0  0  0  0  0  0  0  0  0  0
    0.6621   35.7507   -7.4734 C   0  0  0  0  0  0  0  0  0  0  0  0
    0.6889   35.3922   -8.6919 O   0  0  0  0  0  0  0  0  0  0  0  0
    1.0669   36.8388   -6.9901 O   0  0  0  0  0  0  0  0  0  0  0  0
   -0.7133   33.7424   -6.9911 N   0  3  0  0  0  0  0  0  0  0  0  0
   -0.5854   33.4734   -4.8988 C   0  0  0  0  0  0  0  0  0  0  0  0
   -1.2129   32.9830   -5.9819 N   0  0  0  0  0  0  0  0  0  0  0  0
   -0.7184   32.8728   -3.5785 C   0  0  0  0  0  0  0  0  0  0  0  0
    0.4323   32.6860   -2.7962 C   0  0  0  0  0  0  0  0  0  0  0  0
    0.3468   32.1940   -1.4930 C   0  0  0  0  0  0  0  0  0  0  0  0
    1.6122   31.8718   -0.7411 C   0  0  0  0  0  0  0  0  0  0  0  0
    1.9376   30.3905   -0.8715 C   0  0  0  0  0  0  0  0  0  0  0  0
   -0.9208   31.9369   -0.9648 C   0  0  0  0  0  0  0  0  0  0  0  0
   -1.0070   31.5653    0.3482 O   0  0  0  0  0  0  0  0  0  0  0  0
   -2.0726   32.0706   -1.7444 C   0  0  0  0  0  0  0  0  0  0  0  0
   -1.9657   32.5363   -3.0539 C   0  0  0  0  0  0  0  0  0  0  0  0
   -3.1169   32.6990   -3.7776 O   0  0  0  0  0  0  0  0  0  0  0  0
    2.7982   34.9955   -5.1504 H   0  0  0  0  0  0  0  0  0  0  0  0
    4.8555   38.3061   -2.5733 H   0  0  0  0  0  0  0  0  0  0  0  0
    5.0088   36.9066   -1.4760 H   0  0  0  0  0  0  0  0  0  0  0  0
    0.3488   37.4670   -1.5660 H   0  0  0  0  0  0  0  0  0  0  0  0
   -0.9020   36.0832   -3.2081 H   0  0  0  0  0  0  0  0  0  0  0  0
   -0.9902   33.5548   -7.9503 H   0  0  0  0  0  0  0  0  0  0  0  0
    1.4083   32.9354   -3.2075 H   0  0  0  0  0  0  0  0  0  0  0  0
    1.5084   32.1429    0.3153 H   0  0  0  0  0  0  0  0  0  0  0  0
    2.4486   32.4624   -1.1349 H   0  0  0  0  0  0  0  0  0  0  0  0
    2.8566   30.1489   -0.3303 H   0  0  0  0  0  0  0  0  0  0  0  0
    2.0751   30.1086   -1.9222 H   0  0  0  0  0  0  0  0  0  0  0  0
    1.1299   29.7729   -0.4640 H   0  0  0  0  0  0  0  0  0  0  0  0
   -1.9432   31.4502    0.5708 H   0  0  0  0  0  0  0  0  0  0  0  0
   -3.0532   31.8316   -1.3530 H   0  0  0  0  0  0  0  0  0  0  0  0
   -2.8340   32.9918   -4.6768 H   0  0  0  0  0  0  0  0  0  0  0  0
  1  2  2  0  0  0  0
  1  9  1  0  0  0  0
  1 28  1  0  0  0  0
  2  3  1  0  0  0  0
  2  6  1  0  0  0  0
  3  4  1  0  0  0  0
  4  5  1  0  0  0  0
  4 29  1  0  0  0  0
  4 30  1  0  0  0  0
  5  6  1  0  0  0  0
  6  7  2  0  0  0  0
  7  8  1  0  0  0  0
  7 31  1  0  0  0  0
  8  9  2  0  0  0  0
  8 32  1  0  0  0  0
  9 10  1  0  0  0  0
 10 11  1  0  0  0  0
 10 16  2  0  0  0  0
 11 12  1  0  0  0  0
 11 15  2  0  0  0  0
 12 13  2  0  0  0  0
 12 14  1  0  0  0  0
 15 17  1  0  0  0  0
 15 33  1  0  0  0  0
 16 17  1  0  0  0  0
 16 18  1  0  0  0  0
 18 19  2  0  0  0  0
 18 26  1  0  0  0  0
 19 20  1  0  0  0  0
 19 34  1  0  0  0  0
 20 21  1  0  0  0  0
 20 23  2  0  0  0  0
 21 22  1  0  0  0  0
 21 35  1  0  0  0  0
 21 36  1  0  0  0  0
 22 37  1  0  0  0  0
 22 38  1  0  0  0  0
 22 39  1  0  0  0  0
 23 24  1  0  0  0  0
 23 25  1  0  0  0  0
 24 40  1  0  0  0  0
 25 26  2  0  0  0  0
 25 41  1  0  0  0  0
 26 27  1  0  0  0  0
 27 42  1  0  0  0  0
M  CHG  1  15   1
M  END
$$$$
