4CM
 OpenBabel04041917023D

 24 24  0  0  0  0  0  0  0  0999 V2000
   -1.5770   14.6425   50.8922 C   0  0  0  0  0  0  0  0  0  0  0  0
   -1.0845   10.8277   47.2279 O   0  0  0  0  0  0  0  0  0  0  0  0
   -1.7952   13.2561   50.8809 C   0  0  0  0  0  0  0  0  0  0  0  0
    0.3350   12.7997   46.2219 O   0  0  0  0  0  0  0  0  0  0  0  0
   -1.3242   12.4554   49.8382 C   0  0  0  0  0  0  0  0  0  0  0  0
   -1.8316   16.7800   52.0365 N   0  0  0  0  0  0  0  0  0  0  0  0
   -2.7566   14.9664   53.0086 N   0  0  0  0  0  0  0  0  0  0  0  0
   -0.6158   13.0137   48.7698 C   0  0  0  0  0  0  0  0  0  0  0  0
   -0.4028   14.3905   48.7531 C   0  0  0  0  0  0  0  0  0  0  0  0
   -0.8724   15.1956   49.8014 C   0  0  0  0  0  0  0  0  0  0  0  0
   -2.0657   15.4892   52.0087 C   0  0  0  0  0  0  0  0  0  0  0  0
   -0.0778   11.9484   47.4059 P   0  0  1  0  0  0  0  0  0  0  0  0
    1.4557   11.1546   48.0259 C   0  0  0  0  0  0  0  0  0  0  0  0
   -2.3448   12.7420   51.6596 H   0  0  0  0  0  0  0  0  0  0  0  0
   -1.5283   11.3846   49.8260 H   0  0  0  0  0  0  0  0  0  0  0  0
   -2.1566   17.3748   52.7843 H   0  0  0  0  0  0  0  0  0  0  0  0
   -2.9846   13.9824   53.0203 H   0  0  0  0  0  0  0  0  0  0  0  0
   -3.0945   15.5197   53.7761 H   0  0  0  0  0  0  0  0  0  0  0  0
    0.1122   14.8365   47.9005 H   0  0  0  0  0  0  0  0  0  0  0  0
   -0.6720   16.2573   49.7110 H   0  0  0  0  0  0  0  0  0  0  0  0
    1.2492   10.5780   48.9320 H   0  0  0  0  0  0  0  0  0  0  0  0
    2.2110   11.9112   48.2545 H   0  0  0  0  0  0  0  0  0  0  0  0
    1.8633   10.4747   47.2704 H   0  0  0  0  0  0  0  0  0  0  0  0
   -1.3189   17.2338   51.2910 H   0  0  0  0  0  0  0  0  0  0  0  0
  1  3  2  0  0  0  0
  1 10  1  0  0  0  0
  1 11  1  0  0  0  0
  3  5  1  0  0  0  0
  3 14  1  0  0  0  0
  4 12  1  0  0  0  0
  5  8  2  0  0  0  0
  5 15  1  0  0  0  0
  6 11  2  0  0  0  0
  6 16  1  0  0  0  0
  6 24  1  0  0  0  0
  7 11  1  0  0  0  0
  7 17  1  0  0  0  0
  7 18  1  0  0  0  0
  8  9  1  0  0  0  0
  8 12  1  0  0  0  0
  9 10  2  0  0  0  0
  9 19  1  0  0  0  0
 10 20  1  0  0  0  0
 12  2  2  6  0  0  0
 12 13  1  0  0  0  0
 13 21  1  0  0  0  0
 13 22  1  0  0  0  0
 13 23  1  0  0  0  0
M  END
$$$$
