4IP
 OpenBabel04041913593D

 36 36  0  0  1  0  0  0  0  0999 V2000
   -2.0240    4.4979   38.7687 C   0  0  2  0  0  0  0  0  0  0  0  0
   -3.2584    4.7538   39.4839 O   0  0  0  0  0  0  0  0  0  0  0  0
   -0.8782    5.4228   39.1909 C   0  0  2  0  0  0  0  0  0  0  0  0
   -1.0561    6.8373   38.8894 O   0  0  0  0  0  0  0  0  0  0  0  0
    0.3273    4.8556   38.4501 C   0  0  2  0  0  0  0  0  0  0  0  0
    1.4615    5.5299   38.9661 O   0  0  0  0  0  0  0  0  0  0  0  0
    0.2129    5.0172   36.9442 C   0  0  1  0  0  0  0  0  0  0  0  0
    1.3325    4.4307   36.3656 O   0  0  0  0  0  0  0  0  0  0  0  0
   -0.8972    4.1379   36.4593 C   0  0  2  0  0  0  0  0  0  0  0  0
   -1.1908    4.3920   35.0722 O   0  0  0  0  0  0  0  0  0  0  0  0
   -2.1890    4.4775   37.2301 C   0  0  1  0  0  0  0  0  0  0  0  0
   -3.1499    3.4282   36.9714 O   0  0  0  0  0  0  0  0  0  0  0  0
   -3.7702    3.6127   40.6011 P   0  0  0  0  0  0  0  0  0  0  0  0
   -5.0297    4.2474   41.2921 O   0  0  0  0  0  0  0  0  0  0  0  0
   -2.6761    3.4708   41.6636 O   0  0  0  0  0  0  0  0  0  0  0  0
   -4.0967    2.3766   39.8295 O   0  0  0  0  0  0  0  0  0  0  0  0
    2.5697    4.5273   39.6024 P   0  0  0  0  0  0  0  0  0  0  0  0
    3.5648    5.5985   40.2255 O   0  0  0  0  0  0  0  0  0  0  0  0
    1.8456    3.7678   40.7151 O   0  0  0  0  0  0  0  0  0  0  0  0
    3.1736    3.6162   38.6046 O   0  0  0  0  0  0  0  0  0  0  0  0
    2.3974    5.3584   35.5733 P   0  0  0  0  0  0  0  0  0  0  0  0
    1.9306    6.8141   35.6500 O   0  0  0  0  0  0  0  0  0  0  0  0
    3.7687    5.1134   36.1780 O   0  0  0  0  0  0  0  0  0  0  0  0
    2.4734    4.8099   34.1397 O   0  0  0  0  0  0  0  0  0  0  0  0
   -0.7268    3.5285   33.7823 P   0  0  0  0  0  0  0  0  0  0  0  0
    0.2044    4.2755   32.9428 O   0  0  0  0  0  0  0  0  0  0  0  0
   -0.3940    2.0636   34.2248 O   0  0  0  0  0  0  0  0  0  0  0  0
   -2.0603    3.4472   33.0065 O   0  0  0  0  0  0  0  0  0  0  0  0
   -1.6584    3.4967   39.0137 H   0  0  0  0  0  0  0  0  0  0  0  0
   -0.7188    5.3379   40.2774 H   0  0  0  0  0  0  0  0  0  0  0  0
   -1.8295    7.1102   39.3979 H   0  0  0  0  0  0  0  0  0  0  0  0
    0.3848    3.7819   38.6755 H   0  0  0  0  0  0  0  0  0  0  0  0
    0.0144    6.0580   36.6434 H   0  0  0  0  0  0  0  0  0  0  0  0
   -0.6546    3.0772   36.6221 H   0  0  0  0  0  0  0  0  0  0  0  0
   -2.6180    5.4270   36.8470 H   0  0  0  0  0  0  0  0  0  0  0  0
   -3.1434    3.3255   36.0040 H   0  0  0  0  0  0  0  0  0  0  0  0
  1 11  1  0  0  0  0
  1  3  1  0  0  0  0
  1  2  1  0  0  0  0
  1 29  1  1  0  0  0
  2 13  1  0  0  0  0
  3  5  1  0  0  0  0
  3  4  1  0  0  0  0
  3 30  1  1  0  0  0
  4 31  1  0  0  0  0
  5  7  1  0  0  0  0
  5  6  1  0  0  0  0
  5 32  1  1  0  0  0
  6 17  1  0  0  0  0
  7  9  1  0  0  0  0
  7  8  1  0  0  0  0
  7 33  1  6  0  0  0
  8 21  1  0  0  0  0
  9 11  1  0  0  0  0
  9 10  1  0  0  0  0
  9 34  1  1  0  0  0
 10 25  1  0  0  0  0
 11 12  1  0  0  0  0
 11 35  1  6  0  0  0
 12 36  1  0  0  0  0
 13 16  2  0  0  0  0
 13 15  1  0  0  0  0
 13 14  1  0  0  0  0
 17 20  2  0  0  0  0
 17 19  1  0  0  0  0
 17 18  1  0  0  0  0
 21 24  2  0  0  0  0
 21 23  1  0  0  0  0
 21 22  1  0  0  0  0
 25 28  2  0  0  0  0
 25 27  1  0  0  0  0
 25 26  1  0  0  0  0
M  END
$$$$
