4IP
 OpenBabel04041914393D

 36 36  0  0  1  0  0  0  0  0999 V2000
   25.9216    6.5489    8.2276 C   0  0  2  0  0  0  0  0  0  0  0  0
   26.7785    7.6106    7.7592 O   0  0  0  0  0  0  0  0  0  0  0  0
   24.9336    7.0896    9.2585 C   0  0  2  0  0  0  0  0  0  0  0  0
   25.6777    7.6966   10.3637 O   0  0  0  0  0  0  0  0  0  0  0  0
   24.0148    5.9532    9.7546 C   0  0  2  0  0  0  0  0  0  0  0  0
   23.0729    6.5544   10.6549 O   0  0  0  0  0  0  0  0  0  0  0  0
   24.8378    4.8590   10.4496 C   0  0  1  0  0  0  0  0  0  0  0  0
   23.9996    3.7439   10.7661 O   0  0  0  0  0  0  0  0  0  0  0  0
   25.9877    4.3343    9.5641 C   0  0  2  0  0  0  0  0  0  0  0  0
   26.9002    3.5775   10.3887 O   0  0  0  0  0  0  0  0  0  0  0  0
   26.7957    5.4470    8.8576 C   0  0  1  0  0  0  0  0  0  0  0  0
   27.6110    4.8802    7.7961 O   0  0  0  0  0  0  0  0  0  0  0  0
   26.3677    8.4137    6.3940 P   0  0  0  0  0  0  0  0  0  0  0  0
   27.1948    9.7169    6.4635 O   0  0  0  0  0  0  0  0  0  0  0  0
   24.8849    8.6718    6.4253 O   0  0  0  0  0  0  0  0  0  0  0  0
   26.8249    7.5529    5.2072 O   0  0  0  0  0  0  0  0  0  0  0  0
   21.4681    6.3184   10.3309 P   0  0  0  0  0  0  0  0  0  0  0  0
   20.7324    7.0930   11.4695 O   0  0  0  0  0  0  0  0  0  0  0  0
   21.2328    7.0828    9.0124 O   0  0  0  0  0  0  0  0  0  0  0  0
   21.1356    4.8981   10.1439 O   0  0  0  0  0  0  0  0  0  0  0  0
   23.4969    3.5052   12.3094 P   0  0  0  0  0  0  0  0  0  0  0  0
   24.2530    4.4824   13.2399 O   0  0  0  0  0  0  0  0  0  0  0  0
   22.0001    3.6292   12.4125 O   0  0  0  0  0  0  0  0  0  0  0  0
   23.8610    2.0415   12.6364 O   0  0  0  0  0  0  0  0  0  0  0  0
   27.6237    2.2426    9.7984 P   0  0  0  0  0  0  0  0  0  0  0  0
   28.1327    1.4606   11.0258 O   0  0  0  0  0  0  0  0  0  0  0  0
   26.6525    1.4794    8.9300 O   0  0  0  0  0  0  0  0  0  0  0  0
   28.8218    2.7985    8.9952 O   0  0  0  0  0  0  0  0  0  0  0  0
   25.3686    6.1200    7.3817 H   0  0  0  0  0  0  0  0  0  0  0  0
   24.3289    7.8853    8.8044 H   0  0  0  0  0  0  0  0  0  0  0  0
   24.9692    7.9649   10.9805 H   0  0  0  0  0  0  0  0  0  0  0  0
   23.5047    5.5350    8.8810 H   0  0  0  0  0  0  0  0  0  0  0  0
   25.2733    5.2708   11.3610 H   0  0  0  0  0  0  0  0  0  0  0  0
   25.5702    3.6794    8.7966 H   0  0  0  0  0  0  0  0  0  0  0  0
   27.4888    5.9071    9.5750 H   0  0  0  0  0  0  0  0  0  0  0  0
   28.1680    4.1866    8.2381 H   0  0  0  0  0  0  0  0  0  0  0  0
  1 11  1  0  0  0  0
  1  3  1  0  0  0  0
  1  2  1  0  0  0  0
  1 29  1  6  0  0  0
  2 13  1  0  0  0  0
  3  5  1  0  0  0  0
  3  4  1  0  0  0  0
  3 30  1  6  0  0  0
  4 31  1  0  0  0  0
  5  7  1  0  0  0  0
  5  6  1  0  0  0  0
  5 32  1  6  0  0  0
  6 17  1  0  0  0  0
  7  9  1  0  0  0  0
  7  8  1  0  0  0  0
  7 33  1  1  0  0  0
  8 21  1  0  0  0  0
  9 11  1  0  0  0  0
  9 10  1  0  0  0  0
  9 34  1  6  0  0  0
 10 25  1  0  0  0  0
 11 12  1  0  0  0  0
 11 35  1  1  0  0  0
 12 36  1  0  0  0  0
 13 16  2  0  0  0  0
 13 15  1  0  0  0  0
 13 14  1  0  0  0  0
 17 20  2  0  0  0  0
 17 19  1  0  0  0  0
 17 18  1  0  0  0  0
 21 24  2  0  0  0  0
 21 23  1  0  0  0  0
 21 22  1  0  0  0  0
 25 28  2  0  0  0  0
 25 27  1  0  0  0  0
 25 26  1  0  0  0  0
M  END
$$$$
