4NC
 OpenBabel04041914293D

 15 15  0  0  0  0  0  0  0  0999 V2000
    9.8491  -13.0523   41.3272 C   0  0  0  0  0  0  0  0  0  0  0  0
    9.6082  -14.1718   40.4962 C   0  0  0  0  0  0  0  0  0  0  0  0
   10.6043  -14.9863   39.9838 C   0  0  0  0  0  0  0  0  0  0  0  0
   11.9238  -14.7008   40.3105 C   0  0  0  0  0  0  0  0  0  0  0  0
   12.2456  -13.6045   41.1167 C   0  0  0  0  0  0  0  0  0  0  0  0
   11.1984  -12.7957   41.5961 C   0  0  0  0  0  0  0  0  0  0  0  0
    8.9090  -12.3370   41.8128 O   0  0  0  0  0  0  0  0  0  0  0  0
    8.3229  -14.5772   40.2239 O   0  0  0  0  0  0  0  0  0  0  0  0
   13.0007  -15.5733   39.8170 N   0  0  0  0  0  0  0  0  0  0  0  0
   12.6626  -16.5556   39.1222 O   0  0  0  0  0  0  0  0  0  0  0  0
   14.1492  -15.2915   40.1167 O   0  0  0  0  0  0  0  0  0  0  0  0
   10.3234  -15.8390   39.3723 H   0  0  0  0  0  0  0  0  0  0  0  0
   13.2691  -13.3643   41.3817 H   0  0  0  0  0  0  0  0  0  0  0  0
   11.4664  -11.9344   42.2225 H   0  0  0  0  0  0  0  0  0  0  0  0
    7.8559  -14.2372   41.0179 H   0  0  0  0  0  0  0  0  0  0  0  0
  1  7  1  0  0  0  0
  1  6  2  0  0  0  0
  1  2  1  0  0  0  0
  2  8  1  0  0  0  0
  2  3  2  0  0  0  0
  3  4  1  0  0  0  0
  3 12  1  0  0  0  0
  4  9  1  0  0  0  0
  4  5  2  0  0  0  0
  5  6  1  0  0  0  0
  5 13  1  0  0  0  0
  6 14  1  0  0  0  0
  8 15  1  0  0  0  0
  9 11  2  0  0  0  0
  9 10  2  0  0  0  0
M  END
$$$$
