4TR
 OpenBabel04041917423D

 40 42  0  0  0  0  0  0  0  0999 V2000
   20.3380   26.1626   19.5621 S   0  0  0  0  0  0  0  0  0  0  0  0
   20.4968   25.0302   20.4495 O   0  0  0  0  0  0  0  0  0  0  0  0
   19.0488   26.7521   19.2996 O   0  0  0  0  0  0  0  0  0  0  0  0
   21.3337   27.3343   20.0854 O   0  0  0  0  0  0  0  0  0  0  0  0
   20.9724   25.6831   18.1115 N   0  0  0  0  0  0  0  0  0  0  0  0
   21.1621   28.6124   19.6274 C   0  0  0  0  0  0  0  0  0  0  0  0
   21.7909   29.0021   18.4411 C   0  0  0  0  0  0  0  0  0  0  0  0
   21.6740   30.3268   17.9938 C   0  0  0  0  0  0  0  0  0  0  0  0
   20.9447   31.2759   18.7469 C   0  0  0  0  0  0  0  0  0  0  0  0
   20.3118   30.8650   19.9350 C   0  0  0  0  0  0  0  0  0  0  0  0
   20.4333   29.5403   20.3796 C   0  0  0  0  0  0  0  0  0  0  0  0
   20.8522   32.7280   18.2812 C   0  0  0  0  0  0  0  0  0  0  0  0
   26.2690   34.4922   21.8198 C   0  0  0  0  0  0  0  0  0  0  0  0
   27.3115   34.6883   22.3286 N   0  0  0  0  0  0  0  0  0  0  0  0
   24.9966   34.2870   21.1952 C   0  0  0  0  0  0  0  0  0  0  0  0
   24.8362   33.3267   20.1830 C   0  0  0  0  0  0  0  0  0  0  0  0
   23.5733   33.1388   19.5734 C   0  0  0  0  0  0  0  0  0  0  0  0
   22.4398   33.8952   19.9472 C   0  0  0  0  0  0  0  0  0  0  0  0
   22.6366   34.8641   20.9731 C   0  0  0  0  0  0  0  0  0  0  0  0
   23.8907   35.0581   21.5885 C   0  0  0  0  0  0  0  0  0  0  0  0
   21.1606   33.7179   19.3566 N   0  0  0  0  0  0  0  0  0  0  0  0
   19.1129   36.6126   19.0235 N   0  0  0  0  0  0  0  0  0  0  0  0
   18.4779   35.9613   20.0559 N   0  0  0  0  0  0  0  0  0  0  0  0
   19.1297   34.8432   20.2870 C   0  0  0  0  0  0  0  0  0  0  0  0
   20.1908   34.7396   19.4229 N   0  3  0  0  0  0  0  0  0  0  0  0
   20.1345   35.8749   18.6552 C   0  0  0  0  0  0  0  0  0  0  0  0
   19.5996   29.0184   22.0052 Br  0  0  0  0  0  0  0  0  0  0  0  0
   20.5160   24.9359   17.5995 H   0  0  0  0  0  0  0  0  0  0  0  0
   21.8155   26.1260   17.7808 H   0  0  0  0  0  0  0  0  0  0  0  0
   22.3652   28.2862   17.8562 H   0  0  0  0  0  0  0  0  0  0  0  0
   22.1684   30.6235   17.0643 H   0  0  0  0  0  0  0  0  0  0  0  0
   19.7409   31.5893   20.5159 H   0  0  0  0  0  0  0  0  0  0  0  0
   19.8248   32.8847   17.8948 H   0  0  0  0  0  0  0  0  0  0  0  0
   21.5432   32.8704   17.4375 H   0  0  0  0  0  0  0  0  0  0  0  0
   25.6875   32.7189   19.8647 H   0  0  0  0  0  0  0  0  0  0  0  0
   23.4986   32.3855   18.7912 H   0  0  0  0  0  0  0  0  0  0  0  0
   21.8044   35.4893   21.3174 H   0  0  0  0  0  0  0  0  0  0  0  0
   24.0017   35.8104   22.3746 H   0  0  0  0  0  0  0  0  0  0  0  0
   18.8719   34.1131   21.0451 H   0  0  0  0  0  0  0  0  0  0  0  0
   20.8339   36.1163   17.8650 H   0  0  0  0  0  0  0  0  0  0  0  0
  1  2  2  0  0  0  0
  1  3  2  0  0  0  0
  1  4  1  0  0  0  0
  1  5  1  0  0  0  0
  4  6  1  0  0  0  0
  5 28  1  0  0  0  0
  5 29  1  0  0  0  0
  6  7  2  0  0  0  0
  6 11  1  0  0  0  0
  7  8  1  0  0  0  0
  7 30  1  0  0  0  0
  8  9  2  0  0  0  0
  8 31  1  0  0  0  0
  9 10  1  0  0  0  0
  9 12  1  0  0  0  0
 10 11  2  0  0  0  0
 10 32  1  0  0  0  0
 11 27  1  0  0  0  0
 12 21  1  0  0  0  0
 12 33  1  0  0  0  0
 12 34  1  0  0  0  0
 13 14  3  0  0  0  0
 13 15  1  0  0  0  0
 15 16  2  0  0  0  0
 15 20  1  0  0  0  0
 16 17  1  0  0  0  0
 16 35  1  0  0  0  0
 17 18  2  0  0  0  0
 17 36  1  0  0  0  0
 18 19  1  0  0  0  0
 18 21  1  0  0  0  0
 19 20  2  0  0  0  0
 19 37  1  0  0  0  0
 20 38  1  0  0  0  0
 21 25  1  0  0  0  0
 22 23  1  0  0  0  0
 22 26  1  0  0  0  0
 23 24  2  0  0  0  0
 24 25  1  0  0  0  0
 24 39  1  0  0  0  0
 25 26  2  0  0  0  0
 26 40  1  0  0  0  0
M  CHG  1  25   1
M  END
$$$$
