4TZ
 OpenBabel04041917423D

 40 42  0  0  0  0  0  0  0  0999 V2000
   20.4248   26.3960   19.3990 S   0  0  0  0  0  0  0  0  0  0  0  0
   20.6638   25.1371   20.0860 O   0  0  0  0  0  0  0  0  0  0  0  0
   19.0909   26.8922   19.1814 O   0  0  0  0  0  0  0  0  0  0  0  0
   21.2664   27.5309   20.2019 O   0  0  0  0  0  0  0  0  0  0  0  0
   21.1682   26.2422   17.9350 N   0  0  0  0  0  0  0  0  0  0  0  0
   23.1207   33.5651   18.7599 N   0  0  0  0  0  0  0  0  0  0  0  0
   23.5806   34.2978   17.6128 N   0  3  0  0  0  0  0  0  0  0  0  0
   24.6666   34.8223   15.7626 N   0  0  0  0  0  0  0  0  0  0  0  0
   23.9264   35.9153   16.1490 N   0  0  0  0  0  0  0  0  0  0  0  0
   26.2936   34.3304   24.9334 N   0  0  0  0  0  0  0  0  0  0  0  0
   24.4507   33.8643   16.6376 C   0  0  0  0  0  0  0  0  0  0  0  0
   23.2810   35.5940   17.2499 C   0  0  0  0  0  0  0  0  0  0  0  0
   23.7534   33.7051   20.0490 C   0  0  0  0  0  0  0  0  0  0  0  0
   23.1453   33.3074   21.2805 C   0  0  0  0  0  0  0  0  0  0  0  0
   23.7949   33.4568   22.5494 C   0  0  0  0  0  0  0  0  0  0  0  0
   25.0934   34.0107   22.6273 C   0  0  0  0  0  0  0  0  0  0  0  0
   25.7343   34.4160   21.4317 C   0  0  0  0  0  0  0  0  0  0  0  0
   25.0764   34.2647   20.1726 C   0  0  0  0  0  0  0  0  0  0  0  0
   25.7516   34.1718   23.8936 C   0  0  0  0  0  0  0  0  0  0  0  0
   21.7436   32.9786   18.4977 C   0  0  0  0  0  0  0  0  0  0  0  0
   21.5847   31.5078   18.9212 C   0  0  0  0  0  0  0  0  0  0  0  0
   22.5582   30.5471   18.5569 C   0  0  0  0  0  0  0  0  0  0  0  0
   22.4411   29.2077   18.9812 C   0  0  0  0  0  0  0  0  0  0  0  0
   21.3271   28.8185   19.7392 C   0  0  0  0  0  0  0  0  0  0  0  0
   20.3431   29.7481   20.1130 C   0  0  0  0  0  0  0  0  0  0  0  0
   20.4603   31.0939   19.6885 C   0  0  0  0  0  0  0  0  0  0  0  0
   20.8096   25.5637   17.2713 H   0  0  0  0  0  0  0  0  0  0  0  0
   21.9810   26.8106   17.7458 H   0  0  0  0  0  0  0  0  0  0  0  0
   24.8956   32.8774   16.6060 H   0  0  0  0  0  0  0  0  0  0  0  0
   22.6138   36.2526   17.7953 H   0  0  0  0  0  0  0  0  0  0  0  0
   22.1428   32.8731   21.2917 H   0  0  0  0  0  0  0  0  0  0  0  0
   23.2827   33.1381   23.4711 H   0  0  0  0  0  0  0  0  0  0  0  0
   26.7447   34.8500   21.4808 H   0  0  0  0  0  0  0  0  0  0  0  0
   25.6313   34.5965   19.2826 H   0  0  0  0  0  0  0  0  0  0  0  0
   21.4964   33.0292   17.4099 H   0  0  0  0  0  0  0  0  0  0  0  0
   20.9810   33.5837   19.0156 H   0  0  0  0  0  0  0  0  0  0  0  0
   23.4246   30.8489   17.9588 H   0  0  0  0  0  0  0  0  0  0  0  0
   23.2158   28.4850   18.7057 H   0  0  0  0  0  0  0  0  0  0  0  0
   19.4827   29.4381   20.7153 H   0  0  0  0  0  0  0  0  0  0  0  0
   19.6853   31.8190   19.9722 H   0  0  0  0  0  0  0  0  0  0  0  0
  1  2  2  0  0  0  0
  1  3  2  0  0  0  0
  1  4  1  0  0  0  0
  1  5  1  0  0  0  0
  4 24  1  0  0  0  0
  5 27  1  0  0  0  0
  5 28  1  0  0  0  0
  6  7  1  0  0  0  0
  6 13  1  0  0  0  0
  6 20  1  0  0  0  0
  7 11  2  0  0  0  0
  7 12  1  0  0  0  0
  8  9  1  0  0  0  0
  8 11  1  0  0  0  0
  9 12  2  0  0  0  0
 10 19  3  0  0  0  0
 11 29  1  0  0  0  0
 12 30  1  0  0  0  0
 13 14  2  0  0  0  0
 13 18  1  0  0  0  0
 14 15  1  0  0  0  0
 14 31  1  0  0  0  0
 15 16  2  0  0  0  0
 15 32  1  0  0  0  0
 16 17  1  0  0  0  0
 16 19  1  0  0  0  0
 17 18  2  0  0  0  0
 17 33  1  0  0  0  0
 18 34  1  0  0  0  0
 20 21  1  0  0  0  0
 20 35  1  0  0  0  0
 20 36  1  0  0  0  0
 21 22  2  0  0  0  0
 21 26  1  0  0  0  0
 22 23  1  0  0  0  0
 22 37  1  0  0  0  0
 23 24  2  0  0  0  0
 23 38  1  0  0  0  0
 24 25  1  0  0  0  0
 25 26  2  0  0  0  0
 25 39  1  0  0  0  0
 26 40  1  0  0  0  0
M  CHG  1   7   1
M  END
$$$$
