564
 OpenBabel04041914393D

 54 57  0  0  0  0  0  0  0  0999 V2000
   34.6117   18.4197   88.3300 C   0  0  0  0  0  0  0  0  0  0  0  0
   35.5515   17.4163   87.7234 C   0  0  0  0  0  0  0  0  0  0  0  0
   35.6396   16.1198   88.2330 C   0  0  0  0  0  0  0  0  0  0  0  0
   36.5209   15.1946   87.6580 C   0  0  0  0  0  0  0  0  0  0  0  0
   37.3187   15.5576   86.5611 C   0  0  0  0  0  0  0  0  0  0  0  0
   37.2379   16.8692   86.0470 C   0  0  0  0  0  0  0  0  0  0  0  0
   36.3584   17.7815   86.6298 C   0  0  0  0  0  0  0  0  0  0  0  0
   42.7884   13.8595   81.8601 C   0  0  0  0  0  0  0  0  0  0  0  0
   43.1930   13.0135   80.6678 C   0  0  0  0  0  0  0  0  0  0  0  0
   44.6274   13.2784   80.2043 C   0  0  0  0  0  0  0  0  0  0  0  0
   45.0158   14.7269   80.2532 C   0  0  0  0  0  0  0  0  0  0  0  0
   44.8585   15.3515   81.6376 C   0  0  0  0  0  0  0  0  0  0  0  0
   43.5534   14.9514   82.3026 C   0  0  0  0  0  0  0  0  0  0  0  0
   42.2139   13.2952   79.5204 C   0  0  0  0  0  0  0  0  0  0  0  0
   43.1540   11.5239   81.0286 C   0  0  0  0  0  0  0  0  0  0  0  0
   44.8628   16.8531   81.3434 C   0  0  0  0  0  0  0  0  0  0  0  0
   46.0210   15.0163   82.5865 C   0  0  0  0  0  0  0  0  0  0  0  0
   34.1283   18.1672   89.4702 O   0  0  0  0  0  0  0  0  0  0  0  0
   34.3938   19.4600   87.6190 O   0  0  0  0  0  0  0  0  0  0  0  0
   38.1946   14.6347   85.9657 C   0  0  0  0  0  0  0  0  0  0  0  0
   38.9941   15.0103   84.8784 C   0  0  0  0  0  0  0  0  0  0  0  0
   38.9063   16.3104   84.3737 C   0  0  0  0  0  0  0  0  0  0  0  0
   38.0371   17.2312   84.9572 C   0  0  0  0  0  0  0  0  0  0  0  0
   41.1433   14.3314   83.5935 C   0  0  0  0  0  0  0  0  0  0  0  0
   41.5790   13.5779   82.5283 C   0  0  0  0  0  0  0  0  0  0  0  0
   43.1159   15.6920   83.4083 C   0  0  0  0  0  0  0  0  0  0  0  0
   41.9342   15.3871   84.0469 C   0  0  0  0  0  0  0  0  0  0  0  0
   39.8659   13.9781   84.2639 C   0  0  0  0  0  0  0  0  0  0  0  0
   39.5365   12.7947   84.2990 O   0  0  0  0  0  0  0  0  0  0  0  0
   35.0155   15.8328   89.0768 H   0  0  0  0  0  0  0  0  0  0  0  0
   36.5724   14.2006   88.0776 H   0  0  0  0  0  0  0  0  0  0  0  0
   36.2899   18.8039   86.2447 H   0  0  0  0  0  0  0  0  0  0  0  0
   44.7440   12.9348   79.1710 H   0  0  0  0  0  0  0  0  0  0  0  0
   45.3289   12.7219   80.8310 H   0  0  0  0  0  0  0  0  0  0  0  0
   44.3867   15.2740   79.5398 H   0  0  0  0  0  0  0  0  0  0  0  0
   46.0528   14.8246   79.9184 H   0  0  0  0  0  0  0  0  0  0  0  0
   41.1818   13.0765   79.8156 H   0  0  0  0  0  0  0  0  0  0  0  0
   42.4468   12.6799   78.6453 H   0  0  0  0  0  0  0  0  0  0  0  0
   42.2589   14.3484   79.2235 H   0  0  0  0  0  0  0  0  0  0  0  0
   42.1638   11.2100   81.3603 H   0  0  0  0  0  0  0  0  0  0  0  0
   43.8631   11.3158   81.8394 H   0  0  0  0  0  0  0  0  0  0  0  0
   43.4295   10.9121   80.1644 H   0  0  0  0  0  0  0  0  0  0  0  0
   44.7865   17.4468   82.2518 H   0  0  0  0  0  0  0  0  0  0  0  0
   44.0110   17.1008   80.6970 H   0  0  0  0  0  0  0  0  0  0  0  0
   45.7845   17.1345   80.8252 H   0  0  0  0  0  0  0  0  0  0  0  0
   46.0506   13.9492   82.8312 H   0  0  0  0  0  0  0  0  0  0  0  0
   45.9204   15.5643   83.5333 H   0  0  0  0  0  0  0  0  0  0  0  0
   46.9847   15.2995   82.1518 H   0  0  0  0  0  0  0  0  0  0  0  0
   38.2500   13.6232   86.3442 H   0  0  0  0  0  0  0  0  0  0  0  0
   39.4925   16.6246   83.5173 H   0  0  0  0  0  0  0  0  0  0  0  0
   37.9744   18.2390   84.5498 H   0  0  0  0  0  0  0  0  0  0  0  0
   40.9565   12.7415   82.1753 H   0  0  0  0  0  0  0  0  0  0  0  0
   43.6989   16.5276   83.7798 H   0  0  0  0  0  0  0  0  0  0  0  0
   41.6367   15.9779   84.9062 H   0  0  0  0  0  0  0  0  0  0  0  0
  1 19  2  0  0  0  0
  1 18  1  0  0  0  0
  1  2  1  0  0  0  0
  2  7  2  0  0  0  0
  2  3  1  0  0  0  0
  3  4  2  0  0  0  0
  3 30  1  0  0  0  0
  4  5  1  0  0  0  0
  4 31  1  0  0  0  0
  5 20  2  0  0  0  0
  5  6  1  0  0  0  0
  6 23  2  0  0  0  0
  6  7  1  0  0  0  0
  7 32  1  0  0  0  0
  8 25  2  0  0  0  0
  8 13  1  0  0  0  0
  8  9  1  0  0  0  0
  9 15  1  0  0  0  0
  9 14  1  0  0  0  0
  9 10  1  0  0  0  0
 10 11  1  0  0  0  0
 10 33  1  0  0  0  0
 10 34  1  0  0  0  0
 11 12  1  0  0  0  0
 11 35  1  0  0  0  0
 11 36  1  0  0  0  0
 12 17  1  0  0  0  0
 12 16  1  0  0  0  0
 12 13  1  0  0  0  0
 13 26  2  0  0  0  0
 14 37  1  0  0  0  0
 14 38  1  0  0  0  0
 14 39  1  0  0  0  0
 15 40  1  0  0  0  0
 15 41  1  0  0  0  0
 15 42  1  0  0  0  0
 16 43  1  0  0  0  0
 16 44  1  0  0  0  0
 16 45  1  0  0  0  0
 17 46  1  0  0  0  0
 17 47  1  0  0  0  0
 17 48  1  0  0  0  0
 20 21  1  0  0  0  0
 20 49  1  0  0  0  0
 21 22  2  0  0  0  0
 21 28  1  0  0  0  0
 22 23  1  0  0  0  0
 22 50  1  0  0  0  0
 23 51  1  0  0  0  0
 24 28  1  0  0  0  0
 24 27  2  0  0  0  0
 24 25  1  0  0  0  0
 25 52  1  0  0  0  0
 26 27  1  0  0  0  0
 26 53  1  0  0  0  0
 27 54  1  0  0  0  0
 28 29  2  0  0  0  0
M  END
$$$$
