570
 OpenBabel04041914413D

 70 74  0  0  1  0  0  0  0  0999 V2000
   14.5065   -6.6527   12.1497 N   0  0  0  0  0  0  0  0  0  0  0  0
   15.1562   -5.3978   12.6121 C   0  0  1  0  0  0  0  0  0  0  0  0
   14.0857   -4.3685   13.0767 C   0  0  0  0  0  0  0  0  0  0  0  0
   13.0154   -4.0312   12.0389 C   0  0  0  0  0  0  0  0  0  0  0  0
   11.7724   -4.6657   12.0939 C   0  0  0  0  0  0  0  0  0  0  0  0
   13.2409   -3.1175   10.9974 C   0  0  0  0  0  0  0  0  0  0  0  0
   10.7940   -4.4219   11.1187 C   0  0  0  0  0  0  0  0  0  0  0  0
   12.2527   -2.8715   10.0158 C   0  0  0  0  0  0  0  0  0  0  0  0
   11.0321   -3.5388   10.0603 C   0  0  0  0  0  0  0  0  0  0  0  0
    9.9854   -3.4348    9.1801 O   0  0  0  0  0  0  0  0  0  0  0  0
   15.1206   -7.7791   11.6116 C   0  0  0  0  0  0  0  0  0  0  0  0
   14.3583   -8.9022   11.1414 C   0  0  0  0  0  0  0  0  0  0  0  0
   15.0296   -9.9419   10.4672 C   0  0  0  0  0  0  0  0  0  0  0  0
   16.4164   -9.9302   10.2913 C   0  0  0  0  0  0  0  0  0  0  0  0
   17.1586   -8.8573   10.7570 C   0  0  0  0  0  0  0  0  0  0  0  0
   16.5149   -7.7914   11.3911 C   0  0  0  0  0  0  0  0  0  0  0  0
   11.9765  -10.1430   10.9123 C   0  0  0  0  0  0  0  0  0  0  0  0
   10.6991   -9.8767   10.3801 C   0  0  0  0  0  0  0  0  0  0  0  0
    9.8127  -10.9127   10.0517 C   0  0  0  0  0  0  0  0  0  0  0  0
   10.1862  -12.2374   10.2546 C   0  0  0  0  0  0  0  0  0  0  0  0
   11.4346  -12.5184   10.8090 C   0  0  0  0  0  0  0  0  0  0  0  0
   12.3142  -11.4797   11.1567 C   0  0  0  0  0  0  0  0  0  0  0  0
   12.8420   -8.9713   11.3081 C   0  0  0  0  0  0  0  0  0  0  0  0
   12.2227   -8.0216   11.7911 O   0  0  0  0  0  0  0  0  0  0  0  0
    8.6638   -6.3035    5.5218 O   0  0  0  0  0  0  0  0  0  0  0  0
    9.4523   -5.5627    4.6630 C   0  0  0  0  0  0  0  0  0  0  0  0
    9.6484   -4.3186    5.0693 N   0  0  0  0  0  0  0  0  0  0  0  0
    8.9863   -4.2310    6.2746 C   0  0  0  0  0  0  0  0  0  0  0  0
    8.3739   -5.4348    6.5492 C   0  0  0  0  0  0  0  0  0  0  0  0
    7.5175   -5.8843    7.6673 C   0  0  0  0  0  0  0  0  0  0  0  0
    9.9572   -6.2030    3.4316 C   0  0  0  0  0  0  0  0  0  0  0  0
   10.7329   -5.4476    2.5296 C   0  0  0  0  0  0  0  0  0  0  0  0
   11.2451   -5.9961    1.3443 C   0  0  0  0  0  0  0  0  0  0  0  0
   10.9879   -7.3263    1.0373 C   0  0  0  0  0  0  0  0  0  0  0  0
   10.2227   -8.0976    1.9114 C   0  0  0  0  0  0  0  0  0  0  0  0
    9.7129   -7.5422    3.0977 C   0  0  0  0  0  0  0  0  0  0  0  0
   10.1909   -2.7461    7.9420 C   0  0  0  0  0  0  0  0  0  0  0  0
    8.9546   -2.9556    7.0515 C   0  0  0  0  0  0  0  0  0  0  0  0
   17.2008   -4.7559   13.6836 O   0  0  0  0  0  0  0  0  0  0  0  0
   15.8027   -6.1810   14.7977 O   0  0  0  0  0  0  0  0  0  0  0  0
   16.1513   -5.4688   13.8229 C   0  0  0  0  0  0  0  0  0  0  0  0
   13.5861   -6.8370   12.5495 H   0  0  0  0  0  0  0  0  0  0  0  0
   15.6937   -4.9606   11.7612 H   0  0  0  0  0  0  0  0  0  0  0  0
   14.5666   -3.4287   13.3869 H   0  0  0  0  0  0  0  0  0  0  0  0
   13.5833   -4.7340   13.9851 H   0  0  0  0  0  0  0  0  0  0  0  0
   11.5622   -5.3874   12.8797 H   0  0  0  0  0  0  0  0  0  0  0  0
   14.1959   -2.5992   10.9393 H   0  0  0  0  0  0  0  0  0  0  0  0
    9.8519   -4.9523   11.1777 H   0  0  0  0  0  0  0  0  0  0  0  0
   12.4814   -2.1594    9.2301 H   0  0  0  0  0  0  0  0  0  0  0  0
   14.4967  -10.7816   10.0388 H   0  0  0  0  0  0  0  0  0  0  0  0
   16.9101  -10.7524    9.7815 H   0  0  0  0  0  0  0  0  0  0  0  0
   18.2365   -8.8315   10.6194 H   0  0  0  0  0  0  0  0  0  0  0  0
   17.1333   -6.9608   11.7282 H   0  0  0  0  0  0  0  0  0  0  0  0
   10.3779   -8.8453   10.2392 H   0  0  0  0  0  0  0  0  0  0  0  0
    8.8270  -10.6841    9.6533 H   0  0  0  0  0  0  0  0  0  0  0  0
    9.5014  -13.0457   10.0061 H   0  0  0  0  0  0  0  0  0  0  0  0
   11.7167  -13.5518   10.9940 H   0  0  0  0  0  0  0  0  0  0  0  0
   13.2475  -11.7374   11.6484 H   0  0  0  0  0  0  0  0  0  0  0  0
    7.2153   -6.9309    7.5771 H   0  0  0  0  0  0  0  0  0  0  0  0
    6.6092   -5.2720    7.7167 H   0  0  0  0  0  0  0  0  0  0  0  0
    8.0440   -5.7595    8.6198 H   0  0  0  0  0  0  0  0  0  0  0  0
   10.9496   -4.4004    2.7544 H   0  0  0  0  0  0  0  0  0  0  0  0
   11.8458   -5.3827    0.6797 H   0  0  0  0  0  0  0  0  0  0  0  0
   11.3851   -7.7613    0.1209 H   0  0  0  0  0  0  0  0  0  0  0  0
   10.0278   -9.1386    1.6727 H   0  0  0  0  0  0  0  0  0  0  0  0
    9.1261   -8.1752    3.7576 H   0  0  0  0  0  0  0  0  0  0  0  0
   11.0945   -3.1015    7.4351 H   0  0  0  0  0  0  0  0  0  0  0  0
   10.2823   -1.6736    8.1528 H   0  0  0  0  0  0  0  0  0  0  0  0
    8.8820   -2.1340    6.3286 H   0  0  0  0  0  0  0  0  0  0  0  0
    8.0409   -2.9242    7.6594 H   0  0  0  0  0  0  0  0  0  0  0  0
  1 11  1  0  0  0  0
  1  2  1  0  0  0  0
  1 42  1  0  0  0  0
  2 41  1  0  0  0  0
  2  3  1  0  0  0  0
  2 43  1  6  0  0  0
  3  4  1  0  0  0  0
  3 44  1  0  0  0  0
  3 45  1  0  0  0  0
  4  6  2  0  0  0  0
  4  5  1  0  0  0  0
  5  7  2  0  0  0  0
  5 46  1  0  0  0  0
  6  8  1  0  0  0  0
  6 47  1  0  0  0  0
  7  9  1  0  0  0  0
  7 48  1  0  0  0  0
  8  9  2  0  0  0  0
  8 49  1  0  0  0  0
  9 10  1  0  0  0  0
 10 37  1  0  0  0  0
 11 16  2  0  0  0  0
 11 12  1  0  0  0  0
 12 23  1  0  0  0  0
 12 13  2  0  0  0  0
 13 14  1  0  0  0  0
 13 50  1  0  0  0  0
 14 15  2  0  0  0  0
 14 51  1  0  0  0  0
 15 16  1  0  0  0  0
 15 52  1  0  0  0  0
 16 53  1  0  0  0  0
 17 23  1  0  0  0  0
 17 22  2  0  0  0  0
 17 18  1  0  0  0  0
 18 19  2  0  0  0  0
 18 54  1  0  0  0  0
 19 20  1  0  0  0  0
 19 55  1  0  0  0  0
 20 21  2  0  0  0  0
 20 56  1  0  0  0  0
 21 22  1  0  0  0  0
 21 57  1  0  0  0  0
 22 58  1  0  0  0  0
 23 24  2  0  0  0  0
 25 26  1  0  0  0  0
 25 29  1  0  0  0  0
 26 27  2  0  0  0  0
 26 31  1  0  0  0  0
 27 28  1  0  0  0  0
 28 38  1  0  0  0  0
 28 29  2  0  0  0  0
 29 30  1  0  0  0  0
 30 59  1  0  0  0  0
 30 60  1  0  0  0  0
 30 61  1  0  0  0  0
 31 36  2  0  0  0  0
 31 32  1  0  0  0  0
 32 33  2  0  0  0  0
 32 62  1  0  0  0  0
 33 34  1  0  0  0  0
 33 63  1  0  0  0  0
 34 35  2  0  0  0  0
 34 64  1  0  0  0  0
 35 36  1  0  0  0  0
 35 65  1  0  0  0  0
 36 66  1  0  0  0  0
 37 38  1  0  0  0  0
 37 67  1  0  0  0  0
 37 68  1  0  0  0  0
 38 69  1  0  0  0  0
 38 70  1  0  0  0  0
 39 41  2  0  0  0  0
 40 41  1  0  0  0  0
M  END
$$$$
