588
 OpenBabel04041916143D

 73 74  0  0  1  0  0  0  0  0999 V2000
   35.6986   29.8340   23.1088 O   0  0  0  0  0  0  0  0  0  0  0  0
   34.7177   29.1881   23.6316 C   0  0  0  0  0  0  0  0  0  0  0  0
   33.9330   29.6315   24.5299 O   0  0  0  0  0  0  0  0  0  0  0  0
   34.4347   27.7388   23.0307 C   0  0  0  0  0  0  0  0  0  0  0  0
   34.5859   26.8198   23.8378 O   0  0  0  0  0  0  0  0  0  0  0  0
   33.9804   27.5615   21.6972 N   0  0  0  0  0  0  0  0  0  0  0  0
   33.4151   28.6849   21.0016 C   0  0  0  0  0  0  0  0  0  0  0  0
   32.1070   29.0922   21.3356 C   0  0  0  0  0  0  0  0  0  0  0  0
   31.5016   30.1799   20.6990 C   0  0  0  0  0  0  0  0  0  0  0  0
   32.1981   30.9089   19.7276 C   0  0  0  0  0  0  0  0  0  0  0  0
   33.5162   30.5315   19.4090 C   0  0  0  0  0  0  0  0  0  0  0  0
   34.1430   29.4217   20.0296 C   0  0  0  0  0  0  0  0  0  0  0  0
   35.5838   29.1009   19.6594 C   0  0  0  0  0  0  0  0  0  0  0  0
   35.7784   28.4456   18.2958 C   0  0  0  0  0  0  0  0  0  0  0  0
   37.2581   28.3927   17.9426 C   0  0  0  0  0  0  0  0  0  0  0  0
   37.7500   28.9648   16.9739 O   0  0  0  0  0  0  0  0  0  0  0  0
   38.0220   27.6237   18.7640 N   0  0  0  0  0  0  0  0  0  0  0  0
   31.5080   32.0597   19.0238 C   0  0  0  0  0  0  0  0  0  0  0  0
   31.0074   31.7355   17.6000 C   0  0  2  0  0  0  0  0  0  0  0  0
   30.3912   32.9817   17.0026 N   0  0  0  0  0  0  0  0  0  0  0  0
   30.5006   33.1461   15.3459 S   0  0  0  0  0  0  0  0  0  0  0  0
   29.3455   32.4864   14.7746 O   0  0  0  0  0  0  0  0  0  0  0  0
   31.8338   32.8422   14.9511 O   0  0  0  0  0  0  0  0  0  0  0  0
   30.2943   34.9391   15.0295 C   0  0  0  0  0  0  0  0  0  0  0  0
   30.0243   30.5469   17.5833 C   0  0  0  0  0  0  0  0  0  0  0  0
   30.3932   29.3764   17.5195 O   0  0  0  0  0  0  0  0  0  0  0  0
   28.6950   30.8928   17.7216 N   0  0  0  0  0  0  0  0  0  0  0  0
   27.6167   29.9168   17.7491 C   0  0  0  0  0  0  0  0  0  0  0  0
   26.4992   30.4090   18.6629 C   0  0  0  0  0  0  0  0  0  0  0  0
   26.9048   30.3701   20.1415 C   0  0  0  0  0  0  0  0  0  0  0  0
   26.2060   31.4551   20.9602 C   0  0  0  0  0  0  0  0  0  0  0  0
   26.0070   31.0441   22.4107 C   0  0  0  0  0  0  0  0  0  0  0  0
   33.9208   26.2501   21.0620 C   0  0  0  0  0  0  0  0  0  0  0  0
   32.6978   25.8451   20.4577 C   0  0  0  0  0  0  0  0  0  0  0  0
   32.5388   24.6012   19.8227 C   0  0  0  0  0  0  0  0  0  0  0  0
   33.6018   23.7130   19.7549 C   0  0  0  0  0  0  0  0  0  0  0  0
   34.8209   24.0691   20.3363 C   0  0  0  0  0  0  0  0  0  0  0  0
   35.0052   25.3243   21.0179 C   0  0  0  0  0  0  0  0  0  0  0  0
   36.4043   25.5267   21.6318 C   0  0  0  0  0  0  0  0  0  0  0  0
   36.9114   24.5091   22.1948 O   0  0  0  0  0  0  0  0  0  0  0  0
   37.0385   26.6055   21.3628 O   0  0  0  0  0  0  0  0  0  0  0  0
   31.5460   28.5368   22.0865 H   0  0  0  0  0  0  0  0  0  0  0  0
   30.4814   30.4482   20.9704 H   0  0  0  0  0  0  0  0  0  0  0  0
   34.0708   31.1080   18.6645 H   0  0  0  0  0  0  0  0  0  0  0  0
   36.0081   28.4435   20.4145 H   0  0  0  0  0  0  0  0  0  0  0  0
   36.1786   30.0255   19.6782 H   0  0  0  0  0  0  0  0  0  0  0  0
   35.2639   29.0177   17.5149 H   0  0  0  0  0  0  0  0  0  0  0  0
   35.3729   27.4265   18.2945 H   0  0  0  0  0  0  0  0  0  0  0  0
   39.0212   27.5556   18.6446 H   0  0  0  0  0  0  0  0  0  0  0  0
   37.6185   27.1694   19.5967 H   0  0  0  0  0  0  0  0  0  0  0  0
   32.2152   32.9029   18.9722 H   0  0  0  0  0  0  0  0  0  0  0  0
   30.6654   32.4001   19.6454 H   0  0  0  0  0  0  0  0  0  0  0  0
   31.8611   31.4527   16.9795 H   0  0  0  0  0  0  0  0  0  0  0  0
   29.8768   33.6025   17.6198 H   0  0  0  0  0  0  0  0  0  0  0  0
   30.3622   35.1194   13.9445 H   0  0  0  0  0  0  0  0  0  0  0  0
   31.0976   35.4890   15.5229 H   0  0  0  0  0  0  0  0  0  0  0  0
   29.3166   35.2761   15.3797 H   0  0  0  0  0  0  0  0  0  0  0  0
   28.4729   31.8762   17.7412 H   0  0  0  0  0  0  0  0  0  0  0  0
   28.0024   28.9541   18.0965 H   0  0  0  0  0  0  0  0  0  0  0  0
   27.2343   29.7879   16.7260 H   0  0  0  0  0  0  0  0  0  0  0  0
   25.6166   29.7719   18.5219 H   0  0  0  0  0  0  0  0  0  0  0  0
   26.2303   31.4334   18.3801 H   0  0  0  0  0  0  0  0  0  0  0  0
   27.9883   30.5095   20.2310 H   0  0  0  0  0  0  0  0  0  0  0  0
   26.6548   29.3850   20.5507 H   0  0  0  0  0  0  0  0  0  0  0  0
   25.2288   31.6777   20.5210 H   0  0  0  0  0  0  0  0  0  0  0  0
   26.8127   32.3689   20.9330 H   0  0  0  0  0  0  0  0  0  0  0  0
   25.5055   31.8450   22.9669 H   0  0  0  0  0  0  0  0  0  0  0  0
   26.9689   30.8361   22.8905 H   0  0  0  0  0  0  0  0  0  0  0  0
   25.3841   30.1442   22.4692 H   0  0  0  0  0  0  0  0  0  0  0  0
   31.8263   26.4956   20.5010 H   0  0  0  0  0  0  0  0  0  0  0  0
   31.5809   24.3319   19.3729 H   0  0  0  0  0  0  0  0  0  0  0  0
   33.4957   22.7496   19.2608 H   0  0  0  0  0  0  0  0  0  0  0  0
   35.6608   23.3678   20.2865 H   0  0  0  0  0  0  0  0  0  0  0  0
  1  2  2  0  0  0  0
  2  3  1  0  0  0  0
  2  4  1  0  0  0  0
  4  5  2  0  0  0  0
  4  6  1  0  0  0  0
  6  7  1  0  0  0  0
  6 33  1  0  0  0  0
  7  8  2  0  0  0  0
  7 12  1  0  0  0  0
  8  9  1  0  0  0  0
  8 42  1  0  0  0  0
  9 10  2  0  0  0  0
  9 43  1  0  0  0  0
 10 11  1  0  0  0  0
 10 18  1  0  0  0  0
 11 12  2  0  0  0  0
 11 44  1  0  0  0  0
 12 13  1  0  0  0  0
 13 14  1  0  0  0  0
 13 45  1  0  0  0  0
 13 46  1  0  0  0  0
 14 15  1  0  0  0  0
 14 47  1  0  0  0  0
 14 48  1  0  0  0  0
 15 16  2  0  0  0  0
 15 17  1  0  0  0  0
 17 49  1  0  0  0  0
 17 50  1  0  0  0  0
 18 19  1  0  0  0  0
 18 51  1  0  0  0  0
 18 52  1  0  0  0  0
 19 20  1  0  0  0  0
 19 25  1  0  0  0  0
 19 53  1  6  0  0  0
 20 21  1  0  0  0  0
 20 54  1  0  0  0  0
 21 22  2  0  0  0  0
 21 23  2  0  0  0  0
 21 24  1  0  0  0  0
 24 55  1  0  0  0  0
 24 56  1  0  0  0  0
 24 57  1  0  0  0  0
 25 26  2  0  0  0  0
 25 27  1  0  0  0  0
 27 28  1  0  0  0  0
 27 58  1  0  0  0  0
 28 29  1  0  0  0  0
 28 59  1  0  0  0  0
 28 60  1  0  0  0  0
 29 30  1  0  0  0  0
 29 61  1  0  0  0  0
 29 62  1  0  0  0  0
 30 31  1  0  0  0  0
 30 63  1  0  0  0  0
 30 64  1  0  0  0  0
 31 32  1  0  0  0  0
 31 65  1  0  0  0  0
 31 66  1  0  0  0  0
 32 67  1  0  0  0  0
 32 68  1  0  0  0  0
 32 69  1  0  0  0  0
 33 34  2  0  0  0  0
 33 38  1  0  0  0  0
 34 35  1  0  0  0  0
 34 70  1  0  0  0  0
 35 36  2  0  0  0  0
 35 71  1  0  0  0  0
 36 37  1  0  0  0  0
 36 72  1  0  0  0  0
 37 38  2  0  0  0  0
 37 73  1  0  0  0  0
 38 39  1  0  0  0  0
 39 40  2  0  0  0  0
 39 41  1  0  0  0  0
M  END
$$$$
