5GP
 OpenBabel04041916383D

 36 38  0  0  1  0  0  0  0  0999 V2000
   60.5628  108.3634  114.3839 P   0  0  0  0  0  0  0  0  0  0  0  0
   59.0730  108.5052  114.7110 O   0  0  0  0  0  0  0  0  0  0  0  0
   60.8714  108.3494  112.9008 O   0  0  0  0  0  0  0  0  0  0  0  0
   61.4664  109.2645  115.2102 O   0  0  0  0  0  0  0  0  0  0  0  0
   60.9417  106.8323  114.8623 O   0  0  0  0  0  0  0  0  0  0  0  0
   61.5033  106.6694  116.1560 C   0  0  0  0  0  0  0  0  0  0  0  0
   61.8552  105.2018  116.4405 C   0  0  1  0  0  0  0  0  0  0  0  0
   60.6221  104.4666  116.6869 O   0  0  0  0  0  0  0  0  0  0  0  0
   62.5954  104.4098  115.3634 C   0  0  1  0  0  0  0  0  0  0  0  0
   64.0125  104.5939  115.3754 O   0  0  0  0  0  0  0  0  0  0  0  0
   62.2402  102.9723  115.7573 C   0  0  1  0  0  0  0  0  0  0  0  0
   63.1213  102.5302  116.8267 O   0  0  0  0  0  0  0  0  0  0  0  0
   60.8023  103.1105  116.2613 C   0  0  2  0  0  0  0  0  0  0  0  0
   59.7566  102.7094  115.3283 N   0  3  0  0  0  0  0  0  0  0  0  0
   59.0050  103.5104  114.4977 C   0  0  0  0  0  0  0  0  0  0  0  0
   58.0971  102.8247  113.8244 N   0  0  0  0  0  0  0  0  0  0  0  0
   58.2356  101.5482  114.2690 C   0  0  0  0  0  0  0  0  0  0  0  0
   57.4828  100.3667  113.9223 C   0  0  0  0  0  0  0  0  0  0  0  0
   56.5625  100.2860  113.1224 O   0  0  0  0  0  0  0  0  0  0  0  0
   57.9254   99.2563  114.6250 N   0  3  0  0  0  0  0  0  0  0  0  0
   58.9554   99.2597  115.5381 C   0  0  0  0  0  0  0  0  0  0  0  0
   59.1887   98.0442  116.0939 N   0  0  0  0  0  0  0  0  0  0  0  0
   59.6572  100.3115  115.8513 N   0  0  0  0  0  0  0  0  0  0  0  0
   59.2590  101.4378  115.1862 C   0  0  0  0  0  0  0  0  0  0  0  0
   60.7658  106.9867  116.9006 H   0  0  0  0  0  0  0  0  0  0  0  0
   62.4075  107.2787  116.2621 H   0  0  0  0  0  0  0  0  0  0  0  0
   62.4498  105.1700  117.3657 H   0  0  0  0  0  0  0  0  0  0  0  0
   62.2029  104.6337  114.3666 H   0  0  0  0  0  0  0  0  0  0  0  0
   64.3835  103.9368  114.7659 H   0  0  0  0  0  0  0  0  0  0  0  0
   62.3717  102.2586  114.9398 H   0  0  0  0  0  0  0  0  0  0  0  0
   62.7818  101.6921  117.1801 H   0  0  0  0  0  0  0  0  0  0  0  0
   60.6715  102.4945  117.1569 H   0  0  0  0  0  0  0  0  0  0  0  0
   59.1444  104.5897  114.4295 H   0  0  0  0  0  0  0  0  0  0  0  0
   57.4332   98.4078  114.4287 H   0  0  0  0  0  0  0  0  0  0  0  0
   59.9138   97.9531  116.7887 H   0  0  0  0  0  0  0  0  0  0  0  0
   58.6297   97.2405  115.8607 H   0  0  0  0  0  0  0  0  0  0  0  0
  1  4  2  0  0  0  0
  1  5  1  0  0  0  0
  1  3  1  0  0  0  0
  1  2  1  0  0  0  0
  5  6  1  0  0  0  0
  6  7  1  0  0  0  0
  6 25  1  0  0  0  0
  6 26  1  0  0  0  0
  7  9  1  0  0  0  0
  7  8  1  0  0  0  0
  7 27  1  1  0  0  0
  8 13  1  0  0  0  0
  9 11  1  0  0  0  0
  9 10  1  0  0  0  0
  9 28  1  6  0  0  0
 10 29  1  0  0  0  0
 11 13  1  0  0  0  0
 11 12  1  0  0  0  0
 11 30  1  6  0  0  0
 12 31  1  0  0  0  0
 13 14  1  0  0  0  0
 13 32  1  1  0  0  0
 14 15  2  0  0  0  0
 14 24  1  0  0  0  0
 15 16  1  0  0  0  0
 15 33  1  0  0  0  0
 16 17  1  0  0  0  0
 17 24  2  0  0  0  0
 17 18  1  0  0  0  0
 18 19  2  0  0  0  0
 18 20  1  0  0  0  0
 20 21  1  0  0  0  0
 20 34  1  0  0  0  0
 21 22  1  0  0  0  0
 21 23  2  0  0  0  0
 22 35  1  0  0  0  0
 22 36  1  0  0  0  0
 23 24  1  0  0  0  0
M  CHG  2  14   1  20   1
M  END
$$$$
