5HU
 OpenBabel04041915463D

 35 36  0  0  1  0  0  0  0  0999 V2000
   26.4587   15.3569    8.3779 P   0  0  0  0  0  0  0  0  0  0  0  0
   27.3449   14.7986    9.4821 O   0  0  0  0  0  0  0  0  0  0  0  0
   25.6080   16.5477    8.8052 O   0  0  0  0  0  0  0  0  0  0  0  0
   27.1686   15.5507    7.0495 O   0  0  0  0  0  0  0  0  0  0  0  0
   25.3167   14.2393    8.1549 O   0  0  0  0  0  0  0  0  0  0  0  0
   25.3311   13.0548    7.3787 C   0  0  0  0  0  0  0  0  0  0  0  0
   23.8726   12.4402    7.4879 C   0  0  1  0  0  0  0  0  0  0  0  0
   23.8747   10.9857    7.6226 O   0  0  0  0  0  0  0  0  0  0  0  0
   23.0286   12.9626    8.6830 C   0  0  1  0  0  0  0  0  0  0  0  0
   21.5978   12.9977    8.4296 O   0  0  0  0  0  0  0  0  0  0  0  0
   23.4755   11.9652    9.7587 C   0  0  0  0  0  0  0  0  0  0  0  0
   23.5839   10.6508    8.9966 C   0  0  2  0  0  0  0  0  0  0  0  0
   24.5384    9.6128    9.4352 N   0  3  0  0  0  0  0  0  0  0  0  0
   24.0551    8.3642    9.6511 C   0  0  0  0  0  0  0  0  0  0  0  0
   22.8443    8.0484    9.6033 O   0  0  0  0  0  0  0  0  0  0  0  0
   24.9272    7.3736    9.9700 N   0  3  0  0  0  0  0  0  0  0  0  0
   26.2551    7.5158   10.0972 C   0  0  0  0  0  0  0  0  0  0  0  0
   26.9838    6.5772   10.3950 O   0  0  0  0  0  0  0  0  0  0  0  0
   26.7686    8.8795    9.8579 C   0  0  0  0  0  0  0  0  0  0  0  0
   28.2229    9.0570    9.9804 C   0  0  0  0  0  0  0  0  0  0  0  0
   25.9246    9.8525    9.4939 C   0  0  0  0  0  0  0  0  0  0  0  0
   28.7238    8.7924    8.6905 O   0  0  0  0  0  0  0  0  0  0  0  0
   26.1260   12.3567    7.6883 H   0  0  0  0  0  0  0  0  0  0  0  0
   25.5175   13.3088    6.3333 H   0  0  0  0  0  0  0  0  0  0  0  0
   23.3827   12.6480    6.5420 H   0  0  0  0  0  0  0  0  0  0  0  0
   23.2622   13.9667    8.9754 H   0  0  0  0  0  0  0  0  0  0  0  0
   21.4644   13.7660    7.8150 H   0  0  0  0  0  0  0  0  0  0  0  0
   22.8174   11.8967   10.6325 H   0  0  0  0  0  0  0  0  0  0  0  0
   24.4751   12.2529   10.0998 H   0  0  0  0  0  0  0  0  0  0  0  0
   22.5817   10.2056    9.0563 H   0  0  0  0  0  0  0  0  0  0  0  0
   24.5409    6.4664   10.1557 H   0  0  0  0  0  0  0  0  0  0  0  0
   28.6976    8.3540   10.6695 H   0  0  0  0  0  0  0  0  0  0  0  0
   28.5047   10.0881   10.2544 H   0  0  0  0  0  0  0  0  0  0  0  0
   26.2787   10.8404    9.2623 H   0  0  0  0  0  0  0  0  0  0  0  0
   29.6670    8.9599    8.8218 H   0  0  0  0  0  0  0  0  0  0  0  0
  1  2  2  0  0  0  0
  1  3  1  0  0  0  0
  1  4  1  0  0  0  0
  1  5  1  0  0  0  0
  5  6  1  0  0  0  0
  6  7  1  0  0  0  0
  6 23  1  0  0  0  0
  6 24  1  0  0  0  0
  7  8  1  0  0  0  0
  7  9  1  0  0  0  0
  7 25  1  6  0  0  0
  8 12  1  0  0  0  0
  9 10  1  0  0  0  0
  9 11  1  0  0  0  0
  9 26  1  1  0  0  0
 10 27  1  0  0  0  0
 11 12  1  0  0  0  0
 11 28  1  0  0  0  0
 11 29  1  0  0  0  0
 12 13  1  0  0  0  0
 12 30  1  1  0  0  0
 13 14  1  0  0  0  0
 13 21  1  0  0  0  0
 14 15  2  0  0  0  0
 14 16  1  0  0  0  0
 16 17  1  0  0  0  0
 16 31  1  0  0  0  0
 17 18  2  0  0  0  0
 17 19  1  0  0  0  0
 19 20  1  0  0  0  0
 19 21  2  0  0  0  0
 20 22  1  0  0  0  0
 20 32  1  0  0  0  0
 20 33  1  0  0  0  0
 21 34  1  0  0  0  0
 22 35  1  0  0  0  0
M  CHG  2  13   1  16   1
M  END
$$$$
