656
 OpenBabel04041916023D

 45 47  0  0  0  0  0  0  0  0999 V2000
   44.4623   -3.0925   26.2274 C   0  0  0  0  0  0  0  0  0  0  0  0
   44.8510   -1.7187   26.2461 C   0  0  0  0  0  0  0  0  0  0  0  0
   44.8219   -0.9696   27.3925 C   0  0  0  0  0  0  0  0  0  0  0  0
   44.4059   -1.6757   28.4843 C   0  0  0  0  0  0  0  0  0  0  0  0
   44.0093   -2.9905   28.5558 C   0  0  0  0  0  0  0  0  0  0  0  0
   44.0365   -3.7363   27.3948 C   0  0  0  0  0  0  0  0  0  0  0  0
   44.4993   -3.8219   24.9885 C   0  0  0  0  0  0  0  0  0  0  0  0
   44.3022   -5.1086   24.9234 N   0  0  0  0  0  0  0  0  0  0  0  0
   44.7337   -3.1440   23.8739 N   0  0  0  0  0  0  0  0  0  0  0  0
   44.3517   -1.2596   29.7541 N   0  3  0  0  0  0  0  0  0  0  0  0
   43.6489   -3.3350   29.8171 N   0  0  0  0  0  0  0  0  0  0  0  0
   43.8389   -2.2420   30.5364 C   0  0  0  0  0  0  0  0  0  0  0  0
   43.6014   -2.0737   31.9521 C   0  0  0  0  0  0  0  0  0  0  0  0
   43.2644   -3.2182   32.6858 C   0  0  0  0  0  0  0  0  0  0  0  0
   43.0597   -3.1190   34.0570 C   0  0  0  0  0  0  0  0  0  0  0  0
   43.1832   -1.8847   34.6975 C   0  0  0  0  0  0  0  0  0  0  0  0
   43.5173   -0.7352   33.9822 C   0  0  0  0  0  0  0  0  0  0  0  0
   43.7293   -0.8353   32.6070 C   0  0  0  0  0  0  0  0  0  0  0  0
   44.1209    0.3387   32.0055 O   0  0  0  0  0  0  0  0  0  0  0  0
   43.6721    0.5262   34.4697 O   0  0  0  0  0  0  0  0  0  0  0  0
   43.5573    0.7663   35.8607 C   0  0  0  0  0  0  0  0  0  0  0  0
   44.0486    2.2059   36.0928 C   0  0  0  0  0  0  0  0  0  0  0  0
   42.8572    3.0990   36.4200 C   0  0  0  0  0  0  0  0  0  0  0  0
   45.0245    2.2657   37.2624 C   0  0  0  0  0  0  0  0  0  0  0  0
   45.2065   -1.1770   25.3792 H   0  0  0  0  0  0  0  0  0  0  0  0
   45.1165    0.0726   27.4499 H   0  0  0  0  0  0  0  0  0  0  0  0
   43.7254   -4.7683   27.4753 H   0  0  0  0  0  0  0  0  0  0  0  0
   44.3164   -5.6481   24.0574 H   0  0  0  0  0  0  0  0  0  0  0  0
   44.8905   -2.1321   23.8360 H   0  0  0  0  0  0  0  0  0  0  0  0
   44.7825   -3.6046   23.0010 H   0  0  0  0  0  0  0  0  0  0  0  0
   44.7189   -0.3584   29.9929 H   0  0  0  0  0  0  0  0  0  0  0  0
   43.1776   -4.1909   32.1953 H   0  0  0  0  0  0  0  0  0  0  0  0
   42.8064   -4.0129   34.6226 H   0  0  0  0  0  0  0  0  0  0  0  0
   43.0197   -1.8391   35.7661 H   0  0  0  0  0  0  0  0  0  0  0  0
   43.7920    0.4150   31.1113 H   0  0  0  0  0  0  0  0  0  0  0  0
   44.1616    0.0535   36.4328 H   0  0  0  0  0  0  0  0  0  0  0  0
   42.5056    0.6589   36.1433 H   0  0  0  0  0  0  0  0  0  0  0  0
   44.5462    2.5970   35.1927 H   0  0  0  0  0  0  0  0  0  0  0  0
   43.1746    4.1360   36.5644 H   0  0  0  0  0  0  0  0  0  0  0  0
   42.3830    2.7566   37.3463 H   0  0  0  0  0  0  0  0  0  0  0  0
   42.1121    3.0690   35.6198 H   0  0  0  0  0  0  0  0  0  0  0  0
   45.9198    1.6706   37.0586 H   0  0  0  0  0  0  0  0  0  0  0  0
   44.5504    1.8779   38.1696 H   0  0  0  0  0  0  0  0  0  0  0  0
   45.3367    3.2971   37.4581 H   0  0  0  0  0  0  0  0  0  0  0  0
   44.1214   -5.6452   25.7712 H   0  0  0  0  0  0  0  0  0  0  0  0
  1  2  2  0  0  0  0
  1  6  1  0  0  0  0
  1  7  1  0  0  0  0
  2  3  1  0  0  0  0
  2 25  1  0  0  0  0
  3  4  2  0  0  0  0
  3 26  1  0  0  0  0
  4  5  1  0  0  0  0
  4 10  1  0  0  0  0
  5  6  2  0  0  0  0
  5 11  1  0  0  0  0
  6 27  1  0  0  0  0
  7  8  2  0  0  0  0
  7  9  1  0  0  0  0
  8 28  1  0  0  0  0
  8 45  1  0  0  0  0
  9 29  1  0  0  0  0
  9 30  1  0  0  0  0
 10 12  2  0  0  0  0
 10 31  1  0  0  0  0
 11 12  1  0  0  0  0
 12 13  1  0  0  0  0
 13 14  2  0  0  0  0
 13 18  1  0  0  0  0
 14 15  1  0  0  0  0
 14 32  1  0  0  0  0
 15 16  2  0  0  0  0
 15 33  1  0  0  0  0
 16 17  1  0  0  0  0
 16 34  1  0  0  0  0
 17 18  2  0  0  0  0
 17 20  1  0  0  0  0
 18 19  1  0  0  0  0
 19 35  1  0  0  0  0
 20 21  1  0  0  0  0
 21 22  1  0  0  0  0
 21 36  1  0  0  0  0
 21 37  1  0  0  0  0
 22 23  1  0  0  0  0
 22 24  1  0  0  0  0
 22 38  1  0  0  0  0
 23 39  1  0  0  0  0
 23 40  1  0  0  0  0
 23 41  1  0  0  0  0
 24 42  1  0  0  0  0
 24 43  1  0  0  0  0
 24 44  1  0  0  0  0
M  CHG  1  10   1
M  END
$$$$
