667
 OpenBabel04041917023D

 36 38  0  0  0  0  0  0  0  0999 V2000
   20.5351   26.4584   19.3199 S   0  0  0  0  0  0  0  0  0  0  0  0
   21.2420   26.1515   20.5376 O   0  0  0  0  0  0  0  0  0  0  0  0
   19.1341   26.8272   19.3120 O   0  0  0  0  0  0  0  0  0  0  0  0
   21.3689   27.5570   18.4517 O   0  0  0  0  0  0  0  0  0  0  0  0
   20.6517   25.1066   18.3559 N   0  0  0  0  0  0  0  0  0  0  0  0
   21.7601   28.7098   19.0584 C   0  0  0  0  0  0  0  0  0  0  0  0
   23.0747   28.8129   19.4882 C   0  0  0  0  0  0  0  0  0  0  0  0
   23.5386   30.0206   20.0177 C   0  0  0  0  0  0  0  0  0  0  0  0
   22.7255   31.1621   20.1172 C   0  0  0  0  0  0  0  0  0  0  0  0
   21.4058   31.0174   19.6778 C   0  0  0  0  0  0  0  0  0  0  0  0
   20.9022   29.8057   19.1531 C   0  0  0  0  0  0  0  0  0  0  0  0
   23.1867   32.4665   20.6365 C   0  0  0  0  0  0  0  0  0  0  0  0
   22.3386   33.5223   20.6941 C   0  0  0  0  0  0  0  0  0  0  0  0
   20.9170   33.3677   20.2301 C   0  0  0  0  0  0  0  0  0  0  0  0
   24.6315   32.6256   21.0781 C   0  0  0  0  0  0  0  0  0  0  0  0
   22.7309   34.9082   21.2348 C   0  0  0  0  0  0  0  0  0  0  0  0
   20.1182   34.2945   20.2669 O   0  0  0  0  0  0  0  0  0  0  0  0
   20.5248   32.1139   19.7490 O   0  3  0  0  0  0  0  0  0  0  0  0
   23.7493   35.0198   22.4049 C   0  0  0  0  0  0  0  0  0  0  0  0
   23.8888   33.7577   23.2540 C   0  0  0  0  0  0  0  0  0  0  0  0
   24.7952   32.7145   22.5982 C   0  0  0  0  0  0  0  0  0  0  0  0
   20.2613   24.2372   18.6969 H   0  0  0  0  0  0  0  0  0  0  0  0
   21.2694   25.1519   17.5569 H   0  0  0  0  0  0  0  0  0  0  0  0
   23.7438   27.9580   19.4196 H   0  0  0  0  0  0  0  0  0  0  0  0
   24.5724   30.0328   20.3431 H   0  0  0  0  0  0  0  0  0  0  0  0
   19.8773   29.7210   18.8148 H   0  0  0  0  0  0  0  0  0  0  0  0
   25.0617   33.5209   20.6094 H   0  0  0  0  0  0  0  0  0  0  0  0
   25.2824   31.8312   20.7096 H   0  0  0  0  0  0  0  0  0  0  0  0
   21.8315   35.4468   21.5679 H   0  0  0  0  0  0  0  0  0  0  0  0
   23.1246   35.5108   20.4020 H   0  0  0  0  0  0  0  0  0  0  0  0
   23.4451   35.8487   23.0579 H   0  0  0  0  0  0  0  0  0  0  0  0
   24.7350   35.3190   22.0213 H   0  0  0  0  0  0  0  0  0  0  0  0
   22.8995   33.3282   23.4450 H   0  0  0  0  0  0  0  0  0  0  0  0
   24.3055   34.0124   24.2369 H   0  0  0  0  0  0  0  0  0  0  0  0
   25.8420   32.9621   22.8202 H   0  0  0  0  0  0  0  0  0  0  0  0
   24.6113   31.7363   23.0581 H   0  0  0  0  0  0  0  0  0  0  0  0
  1  2  2  0  0  0  0
  1  3  2  0  0  0  0
  1  4  1  0  0  0  0
  1  5  1  0  0  0  0
  4  6  1  0  0  0  0
  5 22  1  0  0  0  0
  5 23  1  0  0  0  0
  6  7  2  0  0  0  0
  6 11  1  0  0  0  0
  7  8  1  0  0  0  0
  7 24  1  0  0  0  0
  8  9  2  0  0  0  0
  8 25  1  0  0  0  0
  9 10  1  0  0  0  0
  9 12  1  0  0  0  0
 10 11  2  0  0  0  0
 10 18  1  0  0  0  0
 11 26  1  0  0  0  0
 12 13  2  0  0  0  0
 12 15  1  0  0  0  0
 13 14  1  0  0  0  0
 13 16  1  0  0  0  0
 14 17  2  0  0  0  0
 14 18  1  0  0  0  0
 15 21  1  0  0  0  0
 15 27  1  0  0  0  0
 15 28  1  0  0  0  0
 16 19  1  0  0  0  0
 16 29  1  0  0  0  0
 16 30  1  0  0  0  0
 19 20  1  0  0  0  0
 19 31  1  0  0  0  0
 19 32  1  0  0  0  0
 20 21  1  0  0  0  0
 20 33  1  0  0  0  0
 20 34  1  0  0  0  0
 21 35  1  0  0  0  0
 21 36  1  0  0  0  0
M  CHG  1  18   1
M  END
$$$$
