6NP
 OpenBabel04041917523D

 63 68  0  0  1  0  0  0  0  0999 V2000
   23.6382   14.9034   32.0807 C   0  0  0  0  0  0  0  0  0  0  0  0
   22.4600   15.5369   32.1034 N   0  0  0  0  0  0  0  0  0  0  0  0
   21.2489   14.8475   32.2108 N   0  0  0  0  0  0  0  0  0  0  0  0
   21.2095   13.4987   32.2905 C   0  0  0  0  0  0  0  0  0  0  0  0
   22.4038   12.7703   32.2380 C   0  0  0  0  0  0  0  0  0  0  0  0
   22.4754   11.2920   32.2431 C   0  0  0  0  0  0  0  0  0  0  0  0
   23.1905   10.6073   33.2359 C   0  0  0  0  0  0  0  0  0  0  0  0
   23.2425    9.2208   33.2004 C   0  0  0  0  0  0  0  0  0  0  0  0
   22.6523    8.4754   32.2473 N   0  0  0  0  0  0  0  0  0  0  0  0
   21.9680    9.1403   31.2950 C   0  0  0  0  0  0  0  0  0  0  0  0
   21.8608   10.5229   31.2459 C   0  0  0  0  0  0  0  0  0  0  0  0
   23.6101   13.5093   32.1405 C   0  0  0  0  0  0  0  0  0  0  0  0
   27.8597   13.9549   30.4140 C   0  0  0  0  0  0  0  0  0  0  0  0
   26.8469   11.7353   29.7399 C   0  0  0  0  0  0  0  0  0  0  0  0
   26.5678   10.3892   29.9794 C   0  0  0  0  0  0  0  0  0  0  0  0
   27.0461    9.7734   31.1317 C   0  0  0  0  0  0  0  0  0  0  0  0
   27.8034   10.5033   32.0459 C   0  0  0  0  0  0  0  0  0  0  0  0
   28.0798   11.8527   31.8135 C   0  0  0  0  0  0  0  0  0  0  0  0
   27.6010   12.4851   30.6585 C   0  0  0  0  0  0  0  0  0  0  0  0
   19.8573   12.9197   32.4106 C   0  0  0  0  0  0  0  0  0  0  0  0
   18.8996   13.1084   31.3939 C   0  0  0  0  0  0  0  0  0  0  0  0
   17.6117   12.5341   31.4581 C   0  0  0  0  0  0  0  0  0  0  0  0
   17.2558   11.7666   32.5867 C   0  0  0  0  0  0  0  0  0  0  0  0
   18.1909   11.6041   33.6190 C   0  0  0  0  0  0  0  0  0  0  0  0
   19.4706   12.1703   33.5316 C   0  0  0  0  0  0  0  0  0  0  0  0
   16.6692   12.7001   30.4252 C   0  0  0  0  0  0  0  0  0  0  0  0
   15.4051   12.1095   30.5014 C   0  0  0  0  0  0  0  0  0  0  0  0
   15.0580   11.3517   31.6157 C   0  0  0  0  0  0  0  0  0  0  0  0
   15.9747   11.1842   32.6538 C   0  0  0  0  0  0  0  0  0  0  0  0
   26.5603   14.7561   30.5485 C   0  0  1  0  0  0  0  0  0  0  0  0
   26.1360   14.9960   32.0171 C   0  0  0  0  0  0  0  0  0  0  0  0
   24.8216   15.6418   32.0168 N   0  0  0  0  0  0  0  0  0  0  0  0
   24.7695   16.9599   31.3391 C   0  0  0  0  0  0  0  0  0  0  0  0
   25.3693   16.8845   29.9081 C   0  0  0  0  0  0  0  0  0  0  0  0
   26.6903   16.1241   29.8823 N   0  3  0  0  0  0  0  0  0  0  0  0
   23.6951   11.1338   34.0397 H   0  0  0  0  0  0  0  0  0  0  0  0
   23.7717    8.6569   33.9641 H   0  0  0  0  0  0  0  0  0  0  0  0
   21.4912    8.5131   30.5457 H   0  0  0  0  0  0  0  0  0  0  0  0
   21.3026   10.9803   30.4354 H   0  0  0  0  0  0  0  0  0  0  0  0
   24.5268   12.9299   32.0770 H   0  0  0  0  0  0  0  0  0  0  0  0
   28.2761   14.0609   29.4046 H   0  0  0  0  0  0  0  0  0  0  0  0
   28.6242   14.3339   31.1039 H   0  0  0  0  0  0  0  0  0  0  0  0
   26.4687   12.1799   28.8218 H   0  0  0  0  0  0  0  0  0  0  0  0
   25.9853    9.8118   29.2639 H   0  0  0  0  0  0  0  0  0  0  0  0
   26.8385    8.7198   31.3103 H   0  0  0  0  0  0  0  0  0  0  0  0
   28.1869   10.0112   32.9373 H   0  0  0  0  0  0  0  0  0  0  0  0
   28.6794   12.3906   32.5448 H   0  0  0  0  0  0  0  0  0  0  0  0
   19.1657   13.7128   30.5276 H   0  0  0  0  0  0  0  0  0  0  0  0
   17.9281   11.0306   34.5062 H   0  0  0  0  0  0  0  0  0  0  0  0
   20.1593   12.0225   34.3614 H   0  0  0  0  0  0  0  0  0  0  0  0
   16.9142   13.2922   29.5473 H   0  0  0  0  0  0  0  0  0  0  0  0
   14.6913   12.2425   29.6926 H   0  0  0  0  0  0  0  0  0  0  0  0
   14.0736   10.8921   31.6768 H   0  0  0  0  0  0  0  0  0  0  0  0
   15.6819   10.5913   33.5170 H   0  0  0  0  0  0  0  0  0  0  0  0
   25.7534   14.2615   29.9961 H   0  0  0  0  0  0  0  0  0  0  0  0
   26.8545   15.6718   32.4978 H   0  0  0  0  0  0  0  0  0  0  0  0
   26.1580   14.0851   32.6230 H   0  0  0  0  0  0  0  0  0  0  0  0
   25.3631   17.6704   31.9276 H   0  0  0  0  0  0  0  0  0  0  0  0
   23.7608   17.3820   31.2771 H   0  0  0  0  0  0  0  0  0  0  0  0
   25.5786   17.8810   29.5081 H   0  0  0  0  0  0  0  0  0  0  0  0
   24.7013   16.3517   29.2237 H   0  0  0  0  0  0  0  0  0  0  0  0
   27.4155   16.6843   30.3517 H   0  0  0  0  0  0  0  0  0  0  0  0
   26.9893   16.0114   28.9043 H   0  0  0  0  0  0  0  0  0  0  0  0
  1  2  2  0  0  0  0
  1 12  1  0  0  0  0
  1 32  1  0  0  0  0
  2  3  1  0  0  0  0
  3  4  2  0  0  0  0
  4  5  1  0  0  0  0
  4 20  1  0  0  0  0
  5  6  1  0  0  0  0
  5 12  2  0  0  0  0
  6  7  2  0  0  0  0
  6 11  1  0  0  0  0
  7  8  1  0  0  0  0
  7 36  1  0  0  0  0
  8  9  2  0  0  0  0
  8 37  1  0  0  0  0
  9 10  1  0  0  0  0
 10 11  2  0  0  0  0
 10 38  1  0  0  0  0
 11 39  1  0  0  0  0
 12 40  1  0  0  0  0
 13 19  1  0  0  0  0
 13 30  1  0  0  0  0
 13 41  1  0  0  0  0
 13 42  1  0  0  0  0
 14 15  2  0  0  0  0
 14 19  1  0  0  0  0
 14 43  1  0  0  0  0
 15 16  1  0  0  0  0
 15 44  1  0  0  0  0
 16 17  2  0  0  0  0
 16 45  1  0  0  0  0
 17 18  1  0  0  0  0
 17 46  1  0  0  0  0
 18 19  2  0  0  0  0
 18 47  1  0  0  0  0
 20 21  2  0  0  0  0
 20 25  1  0  0  0  0
 21 22  1  0  0  0  0
 21 48  1  0  0  0  0
 22 23  2  0  0  0  0
 22 26  1  0  0  0  0
 23 24  1  0  0  0  0
 23 29  1  0  0  0  0
 24 25  2  0  0  0  0
 24 49  1  0  0  0  0
 25 50  1  0  0  0  0
 26 27  2  0  0  0  0
 26 51  1  0  0  0  0
 27 28  1  0  0  0  0
 27 52  1  0  0  0  0
 28 29  2  0  0  0  0
 28 53  1  0  0  0  0
 29 54  1  0  0  0  0
 30 31  1  0  0  0  0
 30 35  1  0  0  0  0
 30 55  1  6  0  0  0
 31 32  1  0  0  0  0
 31 56  1  0  0  0  0
 31 57  1  0  0  0  0
 32 33  1  0  0  0  0
 33 34  1  0  0  0  0
 33 58  1  0  0  0  0
 33 59  1  0  0  0  0
 34 35  1  0  0  0  0
 34 60  1  0  0  0  0
 34 61  1  0  0  0  0
 35 62  1  0  0  0  0
 35 63  1  0  0  0  0
M  CHG  1  35   1
M  END
$$$$
