6PG
 OpenBabel04041916213D

 27 26  0  0  1  0  0  0  0  0999 V2000
   20.2580   29.9543   38.8237 C   0  0  0  0  0  0  0  0  0  0  0  0
   20.4212   28.5076   39.3929 C   0  0  1  0  0  0  0  0  0  0  0  0
   21.9031   28.0133   39.4506 C   0  0  2  0  0  0  0  0  0  0  0  0
   22.8879   28.6047   40.5164 C   0  0  1  0  0  0  0  0  0  0  0  0
   24.4072   28.2646   40.2727 C   0  0  1  0  0  0  0  0  0  0  0  0
   25.2363   29.0284   39.1811 C   0  0  0  0  0  0  0  0  0  0  0  0
   21.3488   30.5393   38.4958 O   0  0  0  0  0  0  0  0  0  0  0  0
   19.0724   30.3676   38.6567 O   0  0  0  0  0  0  0  0  0  0  0  0
   19.7510   28.3175   40.6646 O   0  0  0  0  0  0  0  0  0  0  0  0
   22.4431   28.1274   38.1400 O   0  0  0  0  0  0  0  0  0  0  0  0
   22.7132   29.9920   40.7652 O   0  0  0  0  0  0  0  0  0  0  0  0
   25.0580   28.3601   41.5539 O   0  0  0  0  0  0  0  0  0  0  0  0
   25.7447   30.3117   39.5418 O   0  0  0  0  0  0  0  0  0  0  0  0
   27.3781   30.5412   39.6880 P   0  0  0  0  0  0  0  0  0  0  0  0
   27.6766   29.8719   41.0411 O   0  0  0  0  0  0  0  0  0  0  0  0
   27.5749   32.0386   39.6891 O   0  0  0  0  0  0  0  0  0  0  0  0
   28.0132   29.8359   38.4957 O   0  0  0  0  0  0  0  0  0  0  0  0
   19.8801   27.8807   38.6745 H   0  0  0  0  0  0  0  0  0  0  0  0
   21.8405   26.9373   39.6639 H   0  0  0  0  0  0  0  0  0  0  0  0
   22.6072   28.1348   41.4767 H   0  0  0  0  0  0  0  0  0  0  0  0
   24.4386   27.1997   40.0001 H   0  0  0  0  0  0  0  0  0  0  0  0
   24.6193   29.1725   38.2927 H   0  0  0  0  0  0  0  0  0  0  0  0
   26.0681   28.3858   38.8691 H   0  0  0  0  0  0  0  0  0  0  0  0
   20.1424   29.0031   41.2408 H   0  0  0  0  0  0  0  0  0  0  0  0
   22.4191   29.1055   37.9800 H   0  0  0  0  0  0  0  0  0  0  0  0
   23.0409   30.4592   39.9646 H   0  0  0  0  0  0  0  0  0  0  0  0
   25.4245   29.2791   41.5736 H   0  0  0  0  0  0  0  0  0  0  0  0
  1  2  1  0  0  0  0
  1  7  2  0  0  0  0
  1  8  1  0  0  0  0
  2  3  1  0  0  0  0
  2  9  1  0  0  0  0
  2 18  1  6  0  0  0
  3  4  1  0  0  0  0
  3 10  1  0  0  0  0
  3 19  1  1  0  0  0
  4  5  1  0  0  0  0
  4 11  1  0  0  0  0
  4 20  1  1  0  0  0
  5  6  1  0  0  0  0
  5 12  1  0  0  0  0
  5 21  1  6  0  0  0
  6 13  1  0  0  0  0
  6 22  1  0  0  0  0
  6 23  1  0  0  0  0
  9 24  1  0  0  0  0
 10 25  1  0  0  0  0
 11 26  1  0  0  0  0
 12 27  1  0  0  0  0
 13 14  1  0  0  0  0
 14 15  2  0  0  0  0
 14 16  1  0  0  0  0
 14 17  1  0  0  0  0
M  END
$$$$
