711
 OpenBabel04041916353D

 66 70  0  0  0  0  0  0  0  0999 V2000
   19.8813    2.2734   54.2581 N   0  0  0  0  0  0  0  0  0  0  0  0
   19.9416    1.5537   55.3443 C   0  0  0  0  0  0  0  0  0  0  0  0
   18.9074    0.7991   55.7005 N   0  0  0  0  0  0  0  0  0  0  0  0
   21.1651    1.5672   56.1510 C   0  0  0  0  0  0  0  0  0  0  0  0
   22.2836    2.3066   55.7188 C   0  0  0  0  0  0  0  0  0  0  0  0
   23.4411    2.3431   56.4755 C   0  0  0  0  0  0  0  0  0  0  0  0
   24.5270    3.0989   56.0438 C   0  0  0  0  0  0  0  0  0  0  0  0
   25.7093    3.0861   56.8005 C   0  0  0  0  0  0  0  0  0  0  0  0
   25.7393    2.3601   57.9969 C   0  0  0  0  0  0  0  0  0  0  0  0
   24.6577    1.6175   58.4350 C   0  0  0  0  0  0  0  0  0  0  0  0
   23.5055    1.5995   57.6788 C   0  0  0  0  0  0  0  0  0  0  0  0
   22.4082    0.8672   58.1081 C   0  0  0  0  0  0  0  0  0  0  0  0
   21.2510    0.8544   57.3592 C   0  0  0  0  0  0  0  0  0  0  0  0
   26.8913    3.8818   56.3360 C   0  0  0  0  0  0  0  0  0  0  0  0
   28.1549    3.2834   56.7560 N   0  3  0  0  0  0  0  0  0  0  0  0
   28.9297    3.6950   57.8279 C   0  0  0  0  0  0  0  0  0  0  0  0
   28.6782    4.8368   58.7224 C   0  0  0  0  0  0  0  0  0  0  0  0
   29.9591    2.9150   58.0116 N   0  0  0  0  0  0  0  0  0  0  0  0
   29.8703    1.9810   57.0505 C   0  0  0  0  0  0  0  0  0  0  0  0
   30.7750    0.9668   56.8474 C   0  0  0  0  0  0  0  0  0  0  0  0
   30.5474    0.1472   55.7801 C   0  0  0  0  0  0  0  0  0  0  0  0
   29.4090    0.2271   54.9599 C   0  0  0  0  0  0  0  0  0  0  0  0
   28.4616    1.2492   55.1764 C   0  0  0  0  0  0  0  0  0  0  0  0
   28.7510    2.1452   56.2324 C   0  0  0  0  0  0  0  0  0  0  0  0
   29.2194   -0.6829   53.9248 O   0  0  0  0  0  0  0  0  0  0  0  0
   30.2869   -1.6546   53.8564 C   0  0  0  0  0  0  0  0  0  0  0  0
   31.4612   -1.1168   53.0366 C   0  0  0  0  0  0  0  0  0  0  0  0
   31.4449   -1.5893   51.6057 C   0  0  0  0  0  0  0  0  0  0  0  0
   31.2017   -3.0592   51.5758 N   0  0  0  0  0  0  0  0  0  0  0  0
   29.9081   -3.4828   52.1598 C   0  0  0  0  0  0  0  0  0  0  0  0
   29.8120   -3.0571   53.5881 C   0  0  0  0  0  0  0  0  0  0  0  0
   32.0438   -3.9313   51.0172 C   0  0  0  0  0  0  0  0  0  0  0  0
   31.8388   -5.2332   50.9594 N   0  0  0  0  0  0  0  0  0  0  0  0
   33.3023   -3.4317   50.3979 C   0  0  0  0  0  0  0  0  0  0  0  0
   19.0569    2.3087   53.6651 H   0  0  0  0  0  0  0  0  0  0  0  0
   18.9500    0.2135   56.5248 H   0  0  0  0  0  0  0  0  0  0  0  0
   18.0749    0.8138   55.1708 H   0  0  0  0  0  0  0  0  0  0  0  0
   22.2888    2.8754   54.7972 H   0  0  0  0  0  0  0  0  0  0  0  0
   24.4614    3.6864   55.1279 H   0  0  0  0  0  0  0  0  0  0  0  0
   26.6410    2.3488   58.6139 H   0  0  0  0  0  0  0  0  0  0  0  0
   24.7318    1.0602   59.3617 H   0  0  0  0  0  0  0  0  0  0  0  0
   22.4518    0.3006   59.0393 H   0  0  0  0  0  0  0  0  0  0  0  0
   20.4170    0.2828   57.7604 H   0  0  0  0  0  0  0  0  0  0  0  0
   26.8091    4.8975   56.7382 H   0  0  0  0  0  0  0  0  0  0  0  0
   26.8923    3.9439   55.2412 H   0  0  0  0  0  0  0  0  0  0  0  0
   29.4905    4.8946   59.4601 H   0  0  0  0  0  0  0  0  0  0  0  0
   27.7430    4.7018   59.2669 H   0  0  0  0  0  0  0  0  0  0  0  0
   28.6755    5.7623   58.1488 H   0  0  0  0  0  0  0  0  0  0  0  0
   31.6605    0.8273   57.4532 H   0  0  0  0  0  0  0  0  0  0  0  0
   31.3678   -0.5431   55.6574 H   0  0  0  0  0  0  0  0  0  0  0  0
   27.5737    1.3726   54.5650 H   0  0  0  0  0  0  0  0  0  0  0  0
   30.6362   -1.8751   54.8604 H   0  0  0  0  0  0  0  0  0  0  0  0
   32.3992   -1.4421   53.5057 H   0  0  0  0  0  0  0  0  0  0  0  0
   31.4795   -0.0178   53.0396 H   0  0  0  0  0  0  0  0  0  0  0  0
   32.4040   -1.3236   51.1505 H   0  0  0  0  0  0  0  0  0  0  0  0
   30.6655   -1.0866   51.0267 H   0  0  0  0  0  0  0  0  0  0  0  0
   29.8142   -4.5686   52.1556 H   0  0  0  0  0  0  0  0  0  0  0  0
   29.0942   -3.0648   51.5700 H   0  0  0  0  0  0  0  0  0  0  0  0
   28.7911   -3.1764   53.9599 H   0  0  0  0  0  0  0  0  0  0  0  0
   30.4502   -3.7318   54.1841 H   0  0  0  0  0  0  0  0  0  0  0  0
   32.5126   -5.8557   50.5195 H   0  0  0  0  0  0  0  0  0  0  0  0
   33.8972   -4.2319   49.9651 H   0  0  0  0  0  0  0  0  0  0  0  0
   33.9123   -2.9251   51.1533 H   0  0  0  0  0  0  0  0  0  0  0  0
   33.0715   -2.7163   49.5950 H   0  0  0  0  0  0  0  0  0  0  0  0
   20.6399    2.8418   53.9406 H   0  0  0  0  0  0  0  0  0  0  0  0
   31.0298   -5.7036   51.3238 H   0  0  0  0  0  0  0  0  0  0  0  0
  1  2  2  0  0  0  0
  1 35  1  0  0  0  0
  1 65  1  0  0  0  0
  2  4  1  0  0  0  0
  2  3  1  0  0  0  0
  3 36  1  0  0  0  0
  3 37  1  0  0  0  0
  4 13  2  0  0  0  0
  4  5  1  0  0  0  0
  5  6  2  0  0  0  0
  5 38  1  0  0  0  0
  6 11  1  0  0  0  0
  6  7  1  0  0  0  0
  7  8  2  0  0  0  0
  7 39  1  0  0  0  0
  8 14  1  0  0  0  0
  8  9  1  0  0  0  0
  9 10  2  0  0  0  0
  9 40  1  0  0  0  0
 10 11  1  0  0  0  0
 10 41  1  0  0  0  0
 11 12  2  0  0  0  0
 12 13  1  0  0  0  0
 12 42  1  0  0  0  0
 13 43  1  0  0  0  0
 14 15  1  0  0  0  0
 14 44  1  0  0  0  0
 14 45  1  0  0  0  0
 15 24  1  0  0  0  0
 15 16  2  0  0  0  0
 16 18  1  0  0  0  0
 16 17  1  0  0  0  0
 17 46  1  0  0  0  0
 17 47  1  0  0  0  0
 17 48  1  0  0  0  0
 18 19  1  0  0  0  0
 19 24  2  0  0  0  0
 19 20  1  0  0  0  0
 20 21  2  0  0  0  0
 20 49  1  0  0  0  0
 21 22  1  0  0  0  0
 21 50  1  0  0  0  0
 22 25  1  0  0  0  0
 22 23  2  0  0  0  0
 23 24  1  0  0  0  0
 23 51  1  0  0  0  0
 25 26  1  0  0  0  0
 26 31  1  0  0  0  0
 26 27  1  0  0  0  0
 26 52  1  0  0  0  0
 27 28  1  0  0  0  0
 27 53  1  0  0  0  0
 27 54  1  0  0  0  0
 28 29  1  0  0  0  0
 28 55  1  0  0  0  0
 28 56  1  0  0  0  0
 29 32  1  0  0  0  0
 29 30  1  0  0  0  0
 30 31  1  0  0  0  0
 30 57  1  0  0  0  0
 30 58  1  0  0  0  0
 31 59  1  0  0  0  0
 31 60  1  0  0  0  0
 32 34  1  0  0  0  0
 32 33  2  0  0  0  0
 33 61  1  0  0  0  0
 33 66  1  0  0  0  0
 34 62  1  0  0  0  0
 34 63  1  0  0  0  0
 34 64  1  0  0  0  0
M  CHG  1  15   1
M  END
$$$$
