762
 OpenBabel04041916023D

 42 45  0  0  0  0  0  0  0  0999 V2000
   43.9902   -3.0687   25.8087 C   0  0  0  0  0  0  0  0  0  0  0  0
   43.8959   -1.6503   25.7754 C   0  0  0  0  0  0  0  0  0  0  0  0
   43.8607   -0.7341   24.3080 Cl  0  0  0  0  0  0  0  0  0  0  0  0
   43.8150   -0.8923   26.9320 C   0  0  0  0  0  0  0  0  0  0  0  0
   43.7817   -1.6301   28.0953 C   0  0  0  0  0  0  0  0  0  0  0  0
   43.8803   -3.0006   28.1915 C   0  0  0  0  0  0  0  0  0  0  0  0
   43.9983   -3.7495   27.0372 C   0  0  0  0  0  0  0  0  0  0  0  0
   44.1576   -3.8740   24.5963 C   0  0  0  0  0  0  0  0  0  0  0  0
   43.7391   -5.1286   24.5619 N   0  0  0  0  0  0  0  0  0  0  0  0
   44.7633   -3.3432   23.5668 N   0  0  0  0  0  0  0  0  0  0  0  0
   43.5829   -1.2304   29.3678 N   0  3  0  0  0  0  0  0  0  0  0  0
   43.8421   -3.4177   29.4843 N   0  0  0  0  0  0  0  0  0  0  0  0
   43.6775   -2.3213   30.1940 C   0  0  0  0  0  0  0  0  0  0  0  0
   43.5548   -2.2230   31.6331 C   0  0  0  0  0  0  0  0  0  0  0  0
   43.2306   -3.3730   32.3746 C   0  0  0  0  0  0  0  0  0  0  0  0
   43.0426   -3.3051   33.7512 C   0  0  0  0  0  0  0  0  0  0  0  0
   43.2012   -2.0850   34.3943 C   0  0  0  0  0  0  0  0  0  0  0  0
   43.5434   -0.9337   33.6737 C   0  0  0  0  0  0  0  0  0  0  0  0
   43.7148   -1.0031   32.2913 C   0  0  0  0  0  0  0  0  0  0  0  0
   44.0119    0.1690   31.6295 O   0  0  0  0  0  0  0  0  0  0  0  0
   43.7509    0.3149   34.3859 C   0  0  0  0  0  0  0  0  0  0  0  0
   44.7992    0.4159   35.3088 C   0  0  0  0  0  0  0  0  0  0  0  0
   45.0034    1.6090   35.9885 C   0  0  0  0  0  0  0  0  0  0  0  0
   44.1772    2.7064   35.7224 C   0  0  0  0  0  0  0  0  0  0  0  0
   43.1631    2.6059   34.7846 C   0  0  0  0  0  0  0  0  0  0  0  0
   42.9355    1.4337   34.1243 C   0  0  0  0  0  0  0  0  0  0  0  0
   43.7454    0.1938   26.9373 H   0  0  0  0  0  0  0  0  0  0  0  0
   44.0901   -4.8214   27.1525 H   0  0  0  0  0  0  0  0  0  0  0  0
   43.8645   -5.6951   23.7402 H   0  0  0  0  0  0  0  0  0  0  0  0
   45.0524   -2.3652   23.6334 H   0  0  0  0  0  0  0  0  0  0  0  0
   44.8978   -3.8190   22.7008 H   0  0  0  0  0  0  0  0  0  0  0  0
   43.3649   -0.2808   29.6340 H   0  0  0  0  0  0  0  0  0  0  0  0
   43.0939   -4.3294   31.8737 H   0  0  0  0  0  0  0  0  0  0  0  0
   42.7691   -4.1875   34.3238 H   0  0  0  0  0  0  0  0  0  0  0  0
   43.0546   -2.0174   35.4696 H   0  0  0  0  0  0  0  0  0  0  0  0
   44.6358    0.0013   30.9097 H   0  0  0  0  0  0  0  0  0  0  0  0
   45.4513   -0.4354   35.4912 H   0  0  0  0  0  0  0  0  0  0  0  0
   45.8062    1.6799   36.7176 H   0  0  0  0  0  0  0  0  0  0  0  0
   44.3441    3.6307   36.2647 H   0  0  0  0  0  0  0  0  0  0  0  0
   42.5168    3.4742   34.5719 H   0  0  0  0  0  0  0  0  0  0  0  0
   42.1386    1.3430   33.3773 H   0  0  0  0  0  0  0  0  0  0  0  0
   43.2801   -5.5601   25.3552 H   0  0  0  0  0  0  0  0  0  0  0  0
  1  2  2  0  0  0  0
  1  7  1  0  0  0  0
  1  8  1  0  0  0  0
  2  3  1  0  0  0  0
  2  4  1  0  0  0  0
  4  5  2  0  0  0  0
  4 27  1  0  0  0  0
  5  6  1  0  0  0  0
  5 11  1  0  0  0  0
  6  7  2  0  0  0  0
  6 12  1  0  0  0  0
  7 28  1  0  0  0  0
  8  9  2  0  0  0  0
  8 10  1  0  0  0  0
  9 29  1  0  0  0  0
  9 42  1  0  0  0  0
 10 30  1  0  0  0  0
 10 31  1  0  0  0  0
 11 13  2  0  0  0  0
 11 32  1  0  0  0  0
 12 13  1  0  0  0  0
 13 14  1  0  0  0  0
 14 15  2  0  0  0  0
 14 19  1  0  0  0  0
 15 16  1  0  0  0  0
 15 33  1  0  0  0  0
 16 17  2  0  0  0  0
 16 34  1  0  0  0  0
 17 18  1  0  0  0  0
 17 35  1  0  0  0  0
 18 19  2  0  0  0  0
 18 21  1  0  0  0  0
 19 20  1  0  0  0  0
 20 36  1  0  0  0  0
 21 22  2  0  0  0  0
 21 26  1  0  0  0  0
 22 23  1  0  0  0  0
 22 37  1  0  0  0  0
 23 24  2  0  0  0  0
 23 38  1  0  0  0  0
 24 25  1  0  0  0  0
 24 39  1  0  0  0  0
 25 26  2  0  0  0  0
 25 40  1  0  0  0  0
 26 41  1  0  0  0  0
M  CHG  1  11   1
M  END
$$$$
