794
 OpenBabel04041915573D

 36 38  0  0  0  0  0  0  0  0999 V2000
   36.0444   29.8079   23.4549 O   0  0  0  0  0  0  0  0  0  0  0  0
   35.0503   29.0613   23.7491 C   0  0  0  0  0  0  0  0  0  0  0  0
   34.0744   29.4026   24.5096 O   0  0  0  0  0  0  0  0  0  0  0  0
   34.9468   27.6422   23.0919 C   0  0  0  0  0  0  0  0  0  0  0  0
   34.7506   26.7352   23.9125 O   0  0  0  0  0  0  0  0  0  0  0  0
   34.9187   27.4508   21.6899 N   0  0  0  0  0  0  0  0  0  0  0  0
   34.7942   26.1266   21.1266 C   0  0  0  0  0  0  0  0  0  0  0  0
   33.5930   25.8473   20.4138 C   0  0  0  0  0  0  0  0  0  0  0  0
   33.3021   24.5847   19.8868 C   0  0  0  0  0  0  0  0  0  0  0  0
   34.2093   23.5517   20.0369 C   0  0  0  0  0  0  0  0  0  0  0  0
   35.3921   23.7959   20.7281 C   0  0  0  0  0  0  0  0  0  0  0  0
   35.7105   25.0689   21.2967 C   0  0  0  0  0  0  0  0  0  0  0  0
   37.0786   25.1729   21.9719 C   0  0  0  0  0  0  0  0  0  0  0  0
   37.7564   24.0884   22.0483 O   0  0  0  0  0  0  0  0  0  0  0  0
   37.5078   26.3024   22.3382 O   0  0  0  0  0  0  0  0  0  0  0  0
   34.9785   28.5501   20.7664 C   0  0  0  0  0  0  0  0  0  0  0  0
   36.1976   28.7522   20.0953 C   0  0  0  0  0  0  0  0  0  0  0  0
   36.3681   29.8148   19.2153 C   0  0  0  0  0  0  0  0  0  0  0  0
   35.3182   30.6983   18.9685 C   0  0  0  0  0  0  0  0  0  0  0  0
   34.0789   30.5303   19.6104 C   0  0  0  0  0  0  0  0  0  0  0  0
   33.8947   29.4573   20.5322 C   0  0  0  0  0  0  0  0  0  0  0  0
   32.6251   29.3560   21.1421 C   0  0  0  0  0  0  0  0  0  0  0  0
   31.5865   30.2488   20.8627 C   0  0  0  0  0  0  0  0  0  0  0  0
   31.7857   31.2901   19.9658 C   0  0  0  0  0  0  0  0  0  0  0  0
   33.0259   31.4314   19.3464 C   0  0  0  0  0  0  0  0  0  0  0  0
   32.8340   26.6199   20.3181 H   0  0  0  0  0  0  0  0  0  0  0  0
   32.3582   24.4051   19.3787 H   0  0  0  0  0  0  0  0  0  0  0  0
   34.0114   22.5617   19.6318 H   0  0  0  0  0  0  0  0  0  0  0  0
   36.1085   22.9790   20.8358 H   0  0  0  0  0  0  0  0  0  0  0  0
   37.0391   28.0977   20.3267 H   0  0  0  0  0  0  0  0  0  0  0  0
   37.3385   29.9737   18.7465 H   0  0  0  0  0  0  0  0  0  0  0  0
   35.4808   31.5259   18.2930 H   0  0  0  0  0  0  0  0  0  0  0  0
   32.4452   28.5712   21.8757 H   0  0  0  0  0  0  0  0  0  0  0  0
   30.6323   30.1363   21.3682 H   0  0  0  0  0  0  0  0  0  0  0  0
   30.9862   31.9985   19.7668 H   0  0  0  0  0  0  0  0  0  0  0  0
   33.1773   32.2614   18.6612 H   0  0  0  0  0  0  0  0  0  0  0  0
  1  2  2  0  0  0  0
  2  3  1  0  0  0  0
  2  4  1  0  0  0  0
  4  5  2  0  0  0  0
  4  6  1  0  0  0  0
  6  7  1  0  0  0  0
  6 16  1  0  0  0  0
  7  8  2  0  0  0  0
  7 12  1  0  0  0  0
  8  9  1  0  0  0  0
  8 26  1  0  0  0  0
  9 10  2  0  0  0  0
  9 27  1  0  0  0  0
 10 11  1  0  0  0  0
 10 28  1  0  0  0  0
 11 12  2  0  0  0  0
 11 29  1  0  0  0  0
 12 13  1  0  0  0  0
 13 14  2  0  0  0  0
 13 15  1  0  0  0  0
 16 17  2  0  0  0  0
 16 21  1  0  0  0  0
 17 18  1  0  0  0  0
 17 30  1  0  0  0  0
 18 19  2  0  0  0  0
 18 31  1  0  0  0  0
 19 20  1  0  0  0  0
 19 32  1  0  0  0  0
 20 21  2  0  0  0  0
 20 25  1  0  0  0  0
 21 22  1  0  0  0  0
 22 23  2  0  0  0  0
 22 33  1  0  0  0  0
 23 24  1  0  0  0  0
 23 34  1  0  0  0  0
 24 25  2  0  0  0  0
 24 35  1  0  0  0  0
 25 36  1  0  0  0  0
M  END
$$$$
