806
 OpenBabel04041916343D

 70 75  0  0  1  0  0  0  0  0999 V2000
   19.7036    2.1694   53.8226 N   0  0  0  0  0  0  0  0  0  0  0  0
   19.8342    1.5170   54.9612 C   0  0  0  0  0  0  0  0  0  0  0  0
   18.8144    0.7686   55.3456 N   0  0  0  0  0  0  0  0  0  0  0  0
   21.0665    1.5942   55.7909 C   0  0  0  0  0  0  0  0  0  0  0  0
   22.2097    2.3217   55.4002 C   0  0  0  0  0  0  0  0  0  0  0  0
   23.3751    2.3792   56.2015 C   0  0  0  0  0  0  0  0  0  0  0  0
   24.5293    3.0943   55.8192 C   0  0  0  0  0  0  0  0  0  0  0  0
   25.6905    3.0921   56.6157 C   0  0  0  0  0  0  0  0  0  0  0  0
   25.6535    2.4248   57.8474 C   0  0  0  0  0  0  0  0  0  0  0  0
   24.5215    1.7245   58.2477 C   0  0  0  0  0  0  0  0  0  0  0  0
   23.3909    1.6862   57.4306 C   0  0  0  0  0  0  0  0  0  0  0  0
   22.2715    0.9634   57.8304 C   0  0  0  0  0  0  0  0  0  0  0  0
   21.1344    0.9203   57.0270 C   0  0  0  0  0  0  0  0  0  0  0  0
   26.9295    3.8432   56.1715 C   0  0  0  0  0  0  0  0  0  0  0  0
   28.1745    3.1896   56.5904 N   0  3  1  0  0  0  0  0  0  0  0  0
   28.9156    3.5915   57.7016 C   0  0  2  0  0  0  0  0  0  0  0  0
   29.9618    2.6869   57.8434 C   0  0  2  0  0  0  0  0  0  0  0  0
   29.8352    1.7368   56.8147 C   0  0  2  0  0  0  0  0  0  0  0  0
   28.7307    2.0429   56.0170 C   0  0  1  0  0  0  0  0  0  0  0  0
   30.6138    0.6131   56.5691 C   0  0  0  0  0  0  0  0  0  0  0  0
   30.2576   -0.2158   55.5361 C   0  0  0  0  0  0  0  0  0  0  0  0
   29.2091    0.0866   54.6670 C   0  0  1  0  0  0  0  0  0  0  0  0
   28.4005    1.2203   54.9074 C   0  0  0  0  0  0  0  0  0  0  0  0
   30.8842    2.7936   58.9017 C   0  0  0  0  0  0  0  0  0  0  0  0
   30.7491    3.8183   59.8162 C   0  0  0  0  0  0  0  0  0  0  0  0
   29.6973    4.7255   59.6865 C   0  0  0  0  0  0  0  0  0  0  0  0
   28.7668    4.6270   58.6344 C   0  0  0  0  0  0  0  0  0  0  0  0
   28.9804   -0.6739   53.5307 O   0  0  0  0  0  0  0  0  0  0  0  0
   29.8914   -1.7931   53.3255 C   0  0  0  0  0  0  0  0  0  0  0  0
   31.3400   -1.3186   53.0707 C   0  0  0  0  0  0  0  0  0  0  0  0
   31.7117   -1.3504   51.6122 C   0  0  0  0  0  0  0  0  0  0  0  0
   31.7000   -2.7687   51.1960 N   0  0  0  0  0  0  0  0  0  0  0  0
   30.4482   -3.5192   51.5079 C   0  0  0  0  0  0  0  0  0  0  0  0
   29.3724   -2.6608   52.1747 C   0  0  0  0  0  0  0  0  0  0  0  0
   32.7476   -3.3692   50.6137 C   0  0  0  0  0  0  0  0  0  0  0  0
   32.7420   -4.6338   50.2375 N   0  0  0  0  0  0  0  0  0  0  0  0
   34.0239   -2.6459   50.3502 C   0  0  0  0  0  0  0  0  0  0  0  0
   18.8651    2.1115   53.2695 H   0  0  0  0  0  0  0  0  0  0  0  0
   18.8387    0.2158   56.1911 H   0  0  0  0  0  0  0  0  0  0  0  0
   17.9547    0.6947   54.8095 H   0  0  0  0  0  0  0  0  0  0  0  0
   22.2345    2.8576   54.4518 H   0  0  0  0  0  0  0  0  0  0  0  0
   24.5293    3.6534   54.8845 H   0  0  0  0  0  0  0  0  0  0  0  0
   26.5140    2.4213   58.5137 H   0  0  0  0  0  0  0  0  0  0  0  0
   24.5447    1.2021   59.2024 H   0  0  0  0  0  0  0  0  0  0  0  0
   22.2719    0.4240   58.7762 H   0  0  0  0  0  0  0  0  0  0  0  0
   20.3112    0.3368   57.4215 H   0  0  0  0  0  0  0  0  0  0  0  0
   26.9074    4.8537   56.5913 H   0  0  0  0  0  0  0  0  0  0  0  0
   26.9718    3.9388   55.0798 H   0  0  0  0  0  0  0  0  0  0  0  0
   31.4785    0.3834   57.1809 H   0  0  0  0  0  0  0  0  0  0  0  0
   30.8988   -1.0783   55.4366 H   0  0  0  0  0  0  0  0  0  0  0  0
   27.5538    1.4588   54.2682 H   0  0  0  0  0  0  0  0  0  0  0  0
   31.6844    2.0632   59.0018 H   0  0  0  0  0  0  0  0  0  0  0  0
   31.4607    3.8994   60.6353 H   0  0  0  0  0  0  0  0  0  0  0  0
   29.5972    5.5169   60.4191 H   0  0  0  0  0  0  0  0  0  0  0  0
   27.9471    5.3434   58.5769 H   0  0  0  0  0  0  0  0  0  0  0  0
   29.8462   -2.4252   54.2262 H   0  0  0  0  0  0  0  0  0  0  0  0
   32.0192   -1.9804   53.6280 H   0  0  0  0  0  0  0  0  0  0  0  0
   31.5204   -0.2971   53.4146 H   0  0  0  0  0  0  0  0  0  0  0  0
   32.6977   -0.8976   51.4882 H   0  0  0  0  0  0  0  0  0  0  0  0
   30.9985   -0.7857   51.0042 H   0  0  0  0  0  0  0  0  0  0  0  0
   30.7161   -4.3614   52.1564 H   0  0  0  0  0  0  0  0  0  0  0  0
   30.0531   -3.9136   50.5656 H   0  0  0  0  0  0  0  0  0  0  0  0
   28.8831   -2.0269   51.4278 H   0  0  0  0  0  0  0  0  0  0  0  0
   28.5836   -3.3235   52.5566 H   0  0  0  0  0  0  0  0  0  0  0  0
   33.5579   -5.0492   49.7987 H   0  0  0  0  0  0  0  0  0  0  0  0
   34.7577   -3.3017   49.8626 H   0  0  0  0  0  0  0  0  0  0  0  0
   34.4859   -2.3018   51.2806 H   0  0  0  0  0  0  0  0  0  0  0  0
   33.8659   -1.7962   49.6798 H   0  0  0  0  0  0  0  0  0  0  0  0
   20.4361    2.7649   53.4565 H   0  0  0  0  0  0  0  0  0  0  0  0
   31.9425   -5.2373   50.3550 H   0  0  0  0  0  0  0  0  0  0  0  0
  1  2  2  0  0  0  0
  1 38  1  0  0  0  0
  1 69  1  0  0  0  0
  2  4  1  0  0  0  0
  2  3  1  0  0  0  0
  3 39  1  0  0  0  0
  3 40  1  0  0  0  0
  4 13  2  0  0  0  0
  4  5  1  0  0  0  0
  5  6  2  0  0  0  0
  5 41  1  0  0  0  0
  6 11  1  0  0  0  0
  6  7  1  0  0  0  0
  7  8  2  0  0  0  0
  7 42  1  0  0  0  0
  8 14  1  0  0  0  0
  8  9  1  0  0  0  0
  9 10  2  0  0  0  0
  9 43  1  0  0  0  0
 10 11  1  0  0  0  0
 10 44  1  0  0  0  0
 11 12  2  0  0  0  0
 12 13  1  0  0  0  0
 12 45  1  0  0  0  0
 13 46  1  0  0  0  0
 14 47  1  0  0  0  0
 14 48  1  0  0  0  0
 15 14  1  1  0  0  0
 15 19  1  0  0  0  0
 15 16  1  0  0  0  0
 16 27  1  1  0  0  0
 16 17  1  0  0  0  0
 17 24  1  1  0  0  0
 17 18  1  0  0  0  0
 18 20  1  1  0  0  0
 18 19  1  0  0  0  0
 19 23  1  1  0  0  0
 20 21  1  0  0  0  0
 20 49  1  0  0  0  0
 21 22  1  0  0  0  0
 21 50  1  0  0  0  0
 22 23  1  0  0  0  0
 22 28  1  6  0  0  0
 23 51  1  0  0  0  0
 24 25  1  0  0  0  0
 24 52  1  0  0  0  0
 25 26  1  0  0  0  0
 25 53  1  0  0  0  0
 26 27  1  0  0  0  0
 26 54  1  0  0  0  0
 27 55  1  0  0  0  0
 28 29  1  0  0  0  0
 29 34  1  0  0  0  0
 29 30  1  0  0  0  0
 29 56  1  0  0  0  0
 30 31  1  0  0  0  0
 30 57  1  0  0  0  0
 30 58  1  0  0  0  0
 31 32  1  0  0  0  0
 31 59  1  0  0  0  0
 31 60  1  0  0  0  0
 32 35  1  0  0  0  0
 32 33  1  0  0  0  0
 33 34  1  0  0  0  0
 33 61  1  0  0  0  0
 33 62  1  0  0  0  0
 34 63  1  0  0  0  0
 34 64  1  0  0  0  0
 35 37  1  0  0  0  0
 35 36  2  0  0  0  0
 36 65  1  0  0  0  0
 36 70  1  0  0  0  0
 37 66  1  0  0  0  0
 37 67  1  0  0  0  0
 37 68  1  0  0  0  0
M  CHG  1  15   1
M  END
$$$$
