815
 OpenBabel04041914313D

 50 54  0  0  1  0  0  0  0  0999 V2000
    7.7464    9.0903   22.8868 C   0  0  0  0  0  0  0  0  0  0  0  0
    9.0706    9.4299   23.1741 C   0  0  0  0  0  0  0  0  0  0  0  0
    9.7361    8.8700   24.2776 C   0  0  0  0  0  0  0  0  0  0  0  0
    9.0619    7.9476   25.1140 C   0  0  0  0  0  0  0  0  0  0  0  0
    7.7202    7.6239   24.7987 C   0  0  0  0  0  0  0  0  0  0  0  0
    7.0538    8.1836   23.6958 C   0  0  0  0  0  0  0  0  0  0  0  0
   11.0576    9.2022   24.5534 C   0  0  0  0  0  0  0  0  0  0  0  0
   11.6739    8.6258   25.6514 C   0  0  0  0  0  0  0  0  0  0  0  0
   11.0596    7.7471   26.4787 N   0  0  0  0  0  0  0  0  0  0  0  0
    9.7816    7.4266   26.2135 C   0  0  0  0  0  0  0  0  0  0  0  0
    7.7450    1.0390   19.5898 C   0  0  0  0  0  0  0  0  0  0  0  0
    9.0640    0.9495   19.1093 C   0  0  0  0  0  0  0  0  0  0  0  0
    9.2387    0.4587   17.8171 C   0  0  0  0  0  0  0  0  0  0  0  0
    8.1230    0.1090   17.0798 C   0  0  0  0  0  0  0  0  0  0  0  0
    6.8485    0.2098   17.4996 N   0  0  0  0  0  0  0  0  0  0  0  0
    6.6835    0.6784   18.7688 C   0  0  0  0  0  0  0  0  0  0  0  0
    5.4272    0.8623   19.3992 C   0  0  0  0  0  0  0  0  0  0  0  0
    5.5299    1.3705   20.6772 C   0  0  0  0  0  0  0  0  0  0  0  0
    7.1695    1.5672   21.1274 S   0  0  0  0  0  0  0  0  0  0  0  0
    5.5336    6.5820   22.6056 N   0  0  0  0  0  0  0  0  0  0  0  0
    5.0440    5.3824   23.0996 C   0  0  0  0  0  0  0  0  0  0  0  0
    5.2177    4.3431   22.0159 C   0  0  2  0  0  0  0  0  0  0  0  0
    5.4425    5.1779   20.7550 C   0  0  0  0  0  0  0  0  0  0  0  0
    6.0426    6.4686   21.2618 C   0  0  0  0  0  0  0  0  0  0  0  0
    4.0713    3.4893   21.7545 N   0  0  0  0  0  0  0  0  0  0  0  0
    4.2371    1.8331   21.8143 S   0  0  0  0  0  0  0  0  0  0  0  0
    3.0263    1.3119   21.2186 O   0  0  0  0  0  0  0  0  0  0  0  0
    4.6709    1.4356   23.1303 O   0  0  0  0  0  0  0  0  0  0  0  0
    4.5819    5.1910   24.2127 O   0  0  0  0  0  0  0  0  0  0  0  0
    9.2445    6.4852   27.0688 N   0  0  0  0  0  0  0  0  0  0  0  0
    5.6304    7.7998   23.3853 C   0  0  0  0  0  0  0  0  0  0  0  0
    7.2594    9.5376   22.0247 H   0  0  0  0  0  0  0  0  0  0  0  0
    9.5798   10.1386   22.5252 H   0  0  0  0  0  0  0  0  0  0  0  0
    7.1728    6.9208   25.4241 H   0  0  0  0  0  0  0  0  0  0  0  0
   11.6164    9.9018   23.9372 H   0  0  0  0  0  0  0  0  0  0  0  0
   12.7020    8.8573   25.9036 H   0  0  0  0  0  0  0  0  0  0  0  0
    9.9161    1.2353   19.7172 H   0  0  0  0  0  0  0  0  0  0  0  0
   10.2314    0.3454   17.3920 H   0  0  0  0  0  0  0  0  0  0  0  0
    8.2318   -0.2838   16.0708 H   0  0  0  0  0  0  0  0  0  0  0  0
    4.4702    0.6469   18.9423 H   0  0  0  0  0  0  0  0  0  0  0  0
    6.1191    3.7894   22.2793 H   0  0  0  0  0  0  0  0  0  0  0  0
    4.4880    5.3835   20.2501 H   0  0  0  0  0  0  0  0  0  0  0  0
    6.0832    4.6706   20.0266 H   0  0  0  0  0  0  0  0  0  0  0  0
    7.1349    6.4171   21.2829 H   0  0  0  0  0  0  0  0  0  0  0  0
    5.7172    7.3225   20.6607 H   0  0  0  0  0  0  0  0  0  0  0  0
    3.1462    3.8341   22.0131 H   0  0  0  0  0  0  0  0  0  0  0  0
    9.8302    6.2111   27.8448 H   0  0  0  0  0  0  0  0  0  0  0  0
    8.2765    6.2184   27.0501 H   0  0  0  0  0  0  0  0  0  0  0  0
    5.1297    8.5931   22.8207 H   0  0  0  0  0  0  0  0  0  0  0  0
    5.0726    7.6790   24.3216 H   0  0  0  0  0  0  0  0  0  0  0  0
  1  6  2  0  0  0  0
  1  2  1  0  0  0  0
  1 32  1  0  0  0  0
  2  3  2  0  0  0  0
  2 33  1  0  0  0  0
  3  7  1  0  0  0  0
  3  4  1  0  0  0  0
  4 10  1  0  0  0  0
  4  5  2  0  0  0  0
  5  6  1  0  0  0  0
  5 34  1  0  0  0  0
  6 31  1  0  0  0  0
  7  8  2  0  0  0  0
  7 35  1  0  0  0  0
  8  9  1  0  0  0  0
  8 36  1  0  0  0  0
  9 10  2  0  0  0  0
 10 30  1  0  0  0  0
 11 16  1  0  0  0  0
 11 19  1  0  0  0  0
 11 12  2  0  0  0  0
 12 13  1  0  0  0  0
 12 37  1  0  0  0  0
 13 14  2  0  0  0  0
 13 38  1  0  0  0  0
 14 15  1  0  0  0  0
 14 39  1  0  0  0  0
 15 16  2  0  0  0  0
 16 17  1  0  0  0  0
 17 18  2  0  0  0  0
 17 40  1  0  0  0  0
 18 26  1  0  0  0  0
 18 19  1  0  0  0  0
 20 31  1  0  0  0  0
 20 24  1  0  0  0  0
 20 21  1  0  0  0  0
 21 29  2  0  0  0  0
 21 22  1  0  0  0  0
 22 25  1  0  0  0  0
 22 23  1  0  0  0  0
 22 41  1  1  0  0  0
 23 24  1  0  0  0  0
 23 42  1  0  0  0  0
 23 43  1  0  0  0  0
 24 44  1  0  0  0  0
 24 45  1  0  0  0  0
 25 26  1  0  0  0  0
 25 46  1  0  0  0  0
 26 28  2  0  0  0  0
 26 27  2  0  0  0  0
 30 47  1  0  0  0  0
 30 48  1  0  0  0  0
 31 49  1  0  0  0  0
 31 50  1  0  0  0  0
M  END
$$$$
