846
 OpenBabel04041916363D

 79 84  0  0  1  0  0  0  0  0999 V2000
   -8.4159   14.9139   27.8816 C   0  0  0  0  0  0  0  0  0  0  0  0
   -9.1202   14.2299   30.1303 C   0  0  0  0  0  0  0  0  0  0  0  0
  -10.5005   15.9197   28.9370 C   0  0  1  0  0  0  0  0  0  0  0  0
  -10.3560   17.4124   28.6193 C   0  0  1  0  0  0  0  0  0  0  0  0
  -10.0034   17.6801   27.1691 C   0  0  2  0  0  0  0  0  0  0  0  0
   -8.5955   17.1880   26.8575 C   0  0  1  0  0  0  0  0  0  0  0  0
   -8.0152   15.1970   25.4861 C   0  0  0  0  0  0  0  0  0  0  0  0
   -9.1676   14.8746   31.5165 C   0  0  0  0  0  0  0  0  0  0  0  0
   -9.9894   14.3572   32.5541 C   0  0  0  0  0  0  0  0  0  0  0  0
   -9.9680   14.9084   33.8536 C   0  0  0  0  0  0  0  0  0  0  0  0
   -9.1334   16.0233   34.0717 C   0  0  0  0  0  0  0  0  0  0  0  0
   -8.3265   16.5396   33.0631 C   0  0  0  0  0  0  0  0  0  0  0  0
   -8.3271   15.9610   31.7839 C   0  0  0  0  0  0  0  0  0  0  0  0
  -10.7741   14.3783   35.0383 C   0  0  0  0  0  0  0  0  0  0  0  0
  -11.5084   12.2539   36.1525 C   0  0  0  0  0  0  0  0  0  0  0  0
  -12.0862   10.4507   37.3534 C   0  0  0  0  0  0  0  0  0  0  0  0
  -12.5682   11.4091   38.2094 C   0  0  0  0  0  0  0  0  0  0  0  0
  -11.6121   15.2027   28.1314 C   0  0  0  0  0  0  0  0  0  0  0  0
  -12.3181   14.1518   28.9643 C   0  0  0  0  0  0  0  0  0  0  0  0
  -12.2030   12.7946   28.6476 C   0  0  0  0  0  0  0  0  0  0  0  0
  -12.8186   11.8306   29.4536 C   0  0  0  0  0  0  0  0  0  0  0  0
  -13.5524   12.2193   30.5734 C   0  0  0  0  0  0  0  0  0  0  0  0
  -13.6764   13.5684   30.8949 C   0  0  0  0  0  0  0  0  0  0  0  0
  -13.0647   14.5317   30.0927 C   0  0  0  0  0  0  0  0  0  0  0  0
   -7.4803   17.8278   27.7076 C   0  0  0  0  0  0  0  0  0  0  0  0
   -6.1215   17.7267   27.0513 C   0  0  0  0  0  0  0  0  0  0  0  0
   -5.7860   18.5512   25.9693 C   0  0  0  0  0  0  0  0  0  0  0  0
   -4.5586   18.4036   25.3218 C   0  0  0  0  0  0  0  0  0  0  0  0
   -3.6595   17.4342   25.7591 C   0  0  0  0  0  0  0  0  0  0  0  0
   -3.9852   16.6188   26.8482 C   0  0  0  0  0  0  0  0  0  0  0  0
   -5.2083   16.7656   27.4864 C   0  0  0  0  0  0  0  0  0  0  0  0
   -8.7219   15.7951   24.2872 C   0  0  0  0  0  0  0  0  0  0  0  0
   -8.5038   15.2070   22.9235 C   0  0  0  0  0  0  0  0  0  0  0  0
   -9.8198   15.0096   23.6348 C   0  0  0  0  0  0  0  0  0  0  0  0
   -9.2351   15.1681   28.9848 N   0  0  0  0  0  0  0  0  0  0  0  0
   -8.5414   15.7263   26.7534 N   0  0  0  0  0  0  0  0  0  0  0  0
  -10.9873   13.0042   35.0890 N   0  0  0  0  0  0  0  0  0  0  0  0
  -11.4958   10.9382   36.1700 N   0  0  0  0  0  0  0  0  0  0  0  0
   -7.6135   13.9801   27.8869 O   0  0  0  0  0  0  0  0  0  0  0  0
  -11.6078   18.0401   28.9427 O   0  0  0  0  0  0  0  0  0  0  0  0
  -10.0165   19.0909   26.8922 O   0  0  0  0  0  0  0  0  0  0  0  0
  -11.1231   15.1867   35.8932 O   0  0  0  0  0  0  0  0  0  0  0  0
  -12.2459   12.9654   37.5343 S   0  0  0  0  0  0  0  0  0  0  0  0
   -8.1783   13.6807   30.0618 H   0  0  0  0  0  0  0  0  0  0  0  0
   -9.9184   13.4849   30.0551 H   0  0  0  0  0  0  0  0  0  0  0  0
  -10.8534   15.9545   29.9724 H   0  0  0  0  0  0  0  0  0  0  0  0
   -9.5978   17.8597   29.2729 H   0  0  0  0  0  0  0  0  0  0  0  0
  -10.7400   17.2123   26.5008 H   0  0  0  0  0  0  0  0  0  0  0  0
   -8.4035   17.6139   25.8754 H   0  0  0  0  0  0  0  0  0  0  0  0
   -8.1902   14.1158   25.4817 H   0  0  0  0  0  0  0  0  0  0  0  0
   -6.9295   15.3408   25.4143 H   0  0  0  0  0  0  0  0  0  0  0  0
  -10.6541   13.5273   32.3279 H   0  0  0  0  0  0  0  0  0  0  0  0
   -9.0994   16.4878   35.0594 H   0  0  0  0  0  0  0  0  0  0  0  0
   -7.6564   17.3800   33.2587 H   0  0  0  0  0  0  0  0  0  0  0  0
   -7.6734   16.3543   31.0146 H   0  0  0  0  0  0  0  0  0  0  0  0
  -12.1415    9.3881   37.5240 H   0  0  0  0  0  0  0  0  0  0  0  0
  -13.0739   11.2726   39.1655 H   0  0  0  0  0  0  0  0  0  0  0  0
  -11.1977   14.7410   27.2283 H   0  0  0  0  0  0  0  0  0  0  0  0
  -12.3787   15.9148   27.7984 H   0  0  0  0  0  0  0  0  0  0  0  0
  -11.6191   12.4786   27.7848 H   0  0  0  0  0  0  0  0  0  0  0  0
  -12.7276   10.7791   29.2005 H   0  0  0  0  0  0  0  0  0  0  0  0
  -14.0372   11.4663   31.1919 H   0  0  0  0  0  0  0  0  0  0  0  0
  -14.2518   13.8741   31.7649 H   0  0  0  0  0  0  0  0  0  0  0  0
  -13.1571   15.5839   30.3574 H   0  0  0  0  0  0  0  0  0  0  0  0
   -7.4449   17.3694   28.6977 H   0  0  0  0  0  0  0  0  0  0  0  0
   -7.6921   18.8944   27.8577 H   0  0  0  0  0  0  0  0  0  0  0  0
   -6.4903   19.2948   25.6098 H   0  0  0  0  0  0  0  0  0  0  0  0
   -4.3164   19.0290   24.4680 H   0  0  0  0  0  0  0  0  0  0  0  0
   -2.7132   17.3015   25.2445 H   0  0  0  0  0  0  0  0  0  0  0  0
   -3.2788   15.8651   27.1743 H   0  0  0  0  0  0  0  0  0  0  0  0
   -5.4596   16.0952   28.2992 H   0  0  0  0  0  0  0  0  0  0  0  0
   -8.8128   16.8723   24.2849 H   0  0  0  0  0  0  0  0  0  0  0  0
   -7.7983   14.3890   22.8502 H   0  0  0  0  0  0  0  0  0  0  0  0
   -8.4741   15.8783   22.0704 H   0  0  0  0  0  0  0  0  0  0  0  0
  -10.6979   15.5472   23.2949 H   0  0  0  0  0  0  0  0  0  0  0  0
  -10.0489   14.0491   24.0810 H   0  0  0  0  0  0  0  0  0  0  0  0
  -10.6339   12.4513   34.3212 H   0  0  0  0  0  0  0  0  0  0  0  0
  -11.5007   18.9981   28.8378 H   0  0  0  0  0  0  0  0  0  0  0  0
  -10.9207   19.4197   27.0059 H   0  0  0  0  0  0  0  0  0  0  0  0
  1 39  2  0  0  0  0
  1 36  1  0  0  0  0
  1 35  1  0  0  0  0
  2 35  1  0  0  0  0
  2  8  1  0  0  0  0
  2 44  1  0  0  0  0
  2 45  1  0  0  0  0
  3 35  1  0  0  0  0
  3 18  1  0  0  0  0
  3  4  1  0  0  0  0
  3 46  1  1  0  0  0
  4 40  1  0  0  0  0
  4  5  1  0  0  0  0
  4 47  1  1  0  0  0
  5 41  1  0  0  0  0
  5  6  1  0  0  0  0
  5 48  1  6  0  0  0
  6 36  1  0  0  0  0
  6 25  1  0  0  0  0
  6 49  1  6  0  0  0
  7 36  1  0  0  0  0
  7 32  1  0  0  0  0
  7 50  1  0  0  0  0
  7 51  1  0  0  0  0
  8 13  2  0  0  0  0
  8  9  1  0  0  0  0
  9 10  2  0  0  0  0
  9 52  1  0  0  0  0
 10 14  1  0  0  0  0
 10 11  1  0  0  0  0
 11 12  2  0  0  0  0
 11 53  1  0  0  0  0
 12 13  1  0  0  0  0
 12 54  1  0  0  0  0
 13 55  1  0  0  0  0
 14 42  2  0  0  0  0
 14 37  1  0  0  0  0
 15 37  1  0  0  0  0
 15 38  2  0  0  0  0
 15 43  1  0  0  0  0
 16 17  2  0  0  0  0
 16 38  1  0  0  0  0
 16 56  1  0  0  0  0
 17 43  1  0  0  0  0
 17 57  1  0  0  0  0
 18 19  1  0  0  0  0
 18 58  1  0  0  0  0
 18 59  1  0  0  0  0
 19 24  2  0  0  0  0
 19 20  1  0  0  0  0
 20 21  2  0  0  0  0
 20 60  1  0  0  0  0
 21 22  1  0  0  0  0
 21 61  1  0  0  0  0
 22 23  2  0  0  0  0
 22 62  1  0  0  0  0
 23 24  1  0  0  0  0
 23 63  1  0  0  0  0
 24 64  1  0  0  0  0
 25 26  1  0  0  0  0
 25 65  1  0  0  0  0
 25 66  1  0  0  0  0
 26 31  2  0  0  0  0
 26 27  1  0  0  0  0
 27 28  2  0  0  0  0
 27 67  1  0  0  0  0
 28 29  1  0  0  0  0
 28 68  1  0  0  0  0
 29 30  2  0  0  0  0
 29 69  1  0  0  0  0
 30 31  1  0  0  0  0
 30 70  1  0  0  0  0
 31 71  1  0  0  0  0
 32 34  1  0  0  0  0
 32 33  1  0  0  0  0
 32 72  1  0  0  0  0
 33 34  1  0  0  0  0
 33 73  1  0  0  0  0
 33 74  1  0  0  0  0
 34 75  1  0  0  0  0
 34 76  1  0  0  0  0
 37 77  1  0  0  0  0
 40 78  1  0  0  0  0
 41 79  1  0  0  0  0
M  END
$$$$
