878
 OpenBabel04041914273D

 20 20  0  0  0  0  0  0  0  0999 V2000
   12.6048   45.0837   19.1735 C   0  0  0  0  0  0  0  0  0  0  0  0
   11.6365   45.6943   19.9808 C   0  0  0  0  0  0  0  0  0  0  0  0
   10.2817   45.6528   19.6268 C   0  0  0  0  0  0  0  0  0  0  0  0
    9.9034   45.0653   18.3960 C   0  0  0  0  0  0  0  0  0  0  0  0
   10.8898   44.4520   17.6015 C   0  0  0  0  0  0  0  0  0  0  0  0
   12.2192   44.4352   18.0040 C   0  0  0  0  0  0  0  0  0  0  0  0
    8.4782   45.0692   17.8886 C   0  0  0  0  0  0  0  0  0  0  0  0
    7.5480   45.2709   18.7274 O   0  0  0  0  0  0  0  0  0  0  0  0
    8.3097   44.8485   16.6397 O   0  0  0  0  0  0  0  0  0  0  0  0
    9.2609   46.1511   20.4496 N   0  0  0  0  0  0  0  0  0  0  0  0
    9.3271   46.8649   21.6280 C   0  0  0  0  0  0  0  0  0  0  0  0
   10.3456   47.2034   22.2315 O   0  0  0  0  0  0  0  0  0  0  0  0
    7.9715   47.3054   22.2778 C   0  0  0  0  0  0  0  0  0  0  0  0
    7.0108   46.4759   22.1788 O   0  0  0  0  0  0  0  0  0  0  0  0
    7.9264   48.4537   22.8352 O   0  0  0  0  0  0  0  0  0  0  0  0
   13.6072   43.3790   16.8745 I   0  0  0  0  0  0  0  0  0  0  0  0
   13.6425   45.1034   19.4891 H   0  0  0  0  0  0  0  0  0  0  0  0
   11.9509   46.1666   20.9062 H   0  0  0  0  0  0  0  0  0  0  0  0
   10.5726   43.9750   16.6766 H   0  0  0  0  0  0  0  0  0  0  0  0
    8.2957   45.9518   20.1261 H   0  0  0  0  0  0  0  0  0  0  0  0
  1  6  2  0  0  0  0
  1  2  1  0  0  0  0
  1 17  1  0  0  0  0
  2  3  2  0  0  0  0
  2 18  1  0  0  0  0
  3 10  1  0  0  0  0
  3  4  1  0  0  0  0
  4  7  1  0  0  0  0
  4  5  2  0  0  0  0
  5  6  1  0  0  0  0
  5 19  1  0  0  0  0
  6 16  1  0  0  0  0
  7  9  2  0  0  0  0
  7  8  1  0  0  0  0
 10 11  1  0  0  0  0
 10 20  1  0  0  0  0
 11 13  1  0  0  0  0
 11 12  2  0  0  0  0
 13 15  2  0  0  0  0
 13 14  1  0  0  0  0
M  END
$$$$
