8DG
 OpenBabel04041917333D

 44 46  0  0  1  0  0  0  0  0999 V2000
  -29.4721  -16.5742    1.2850 P   0  0  0  0  0  0  0  0  0  0  0  0
  -30.0276  -16.4344   -0.1213 O   0  0  0  0  0  0  0  0  0  0  0  0
  -29.6986  -15.3190    2.1432 O   0  0  0  0  0  0  0  0  0  0  0  0
  -27.9815  -16.9426    1.3061 O   0  0  0  0  0  0  0  0  0  0  0  0
  -30.2841  -17.7529    2.0576 O   0  0  0  0  0  0  0  0  0  0  0  0
  -30.8566  -19.1130    1.4268 P   0  0  2  0  0  0  0  0  0  0  0  0
  -29.7968  -19.8405    0.6065 O   0  0  0  0  0  0  0  0  0  0  0  0
  -32.1994  -18.9301    0.7384 O   0  0  0  0  0  0  0  0  0  0  0  0
  -31.0729  -20.0610    2.7260 O   0  0  0  0  0  0  0  0  0  0  0  0
  -31.4973  -19.7783    4.2288 P   0  0  2  0  0  0  0  0  0  0  0  0
  -31.7126  -21.1120    4.9487 O   0  0  0  0  0  0  0  0  0  0  0  0
  -32.6326  -18.7891    4.3343 O   0  0  0  0  0  0  0  0  0  0  0  0
  -24.5112  -19.1549    6.6521 N   0  3  0  0  0  0  0  0  0  0  0  0
  -23.7099  -19.8695    5.7020 C   0  0  0  0  0  0  0  0  0  0  0  0
  -22.4666  -20.1633    6.3128 N   0  0  0  0  0  0  0  0  0  0  0  0
  -22.5870  -19.6669    7.4981 C   0  0  1  0  0  0  0  0  0  0  0  0
  -21.5939  -19.6534    8.6267 C   0  0  0  0  0  0  0  0  0  0  0  0
  -20.4864  -20.1106    8.6205 O   0  0  0  0  0  0  0  0  0  0  0  0
  -22.1333  -19.0023    9.7718 N   0  3  0  0  0  0  0  0  0  0  0  0
  -23.3510  -18.4567    9.8782 C   0  0  0  0  0  0  0  0  0  0  0  0
  -23.6653  -17.8982   11.0390 N   0  0  0  0  0  0  0  0  0  0  0  0
  -24.1935  -18.4648    8.8896 N   0  3  0  0  0  0  0  0  0  0  0  0
  -23.8499  -19.0358    7.7556 C   0  0  1  0  0  0  0  0  0  0  0  0
  -24.0659  -20.1257    4.6079 O   0  0  0  0  0  0  0  0  0  0  0  0
  -30.1285  -19.1113    4.8350 O   0  0  0  0  0  0  0  0  0  0  0  0
  -28.9406  -19.8569    4.9878 C   0  0  0  0  0  0  0  0  0  0  0  0
  -27.9928  -19.0059    5.8294 C   0  0  1  0  0  0  0  0  0  0  0  0
  -26.7672  -19.7114    6.2372 O   0  0  0  0  0  0  0  0  0  0  0  0
  -27.5325  -17.7202    5.1192 C   0  0  1  0  0  0  0  0  0  0  0  0
  -27.9894  -16.5830    5.8727 O   0  0  0  0  0  0  0  0  0  0  0  0
  -26.0098  -17.7820    5.1962 C   0  0  0  0  0  0  0  0  0  0  0  0
  -25.8407  -18.6566    6.3933 C   0  0  2  0  0  0  0  0  0  0  0  0
  -21.4945  -18.9750   10.5607 H   0  0  0  0  0  0  0  0  0  0  0  0
  -24.5694  -17.4626   11.2008 H   0  0  0  0  0  0  0  0  0  0  0  0
  -28.4667  -20.0781    4.0299 H   0  0  0  0  0  0  0  0  0  0  0  0
  -29.1393  -20.7930    5.5207 H   0  0  0  0  0  0  0  0  0  0  0  0
  -28.5294  -18.7392    6.7550 H   0  0  0  0  0  0  0  0  0  0  0  0
  -27.8589  -17.6697    4.0876 H   0  0  0  0  0  0  0  0  0  0  0  0
  -27.7488  -15.7792    5.3558 H   0  0  0  0  0  0  0  0  0  0  0  0
  -25.5457  -16.8078    5.3353 H   0  0  0  0  0  0  0  0  0  0  0  0
  -25.6045  -18.2684    4.3044 H   0  0  0  0  0  0  0  0  0  0  0  0
  -26.1383  -18.0825    7.2877 H   0  0  0  0  0  0  0  0  0  0  0  0
  -22.9987  -17.8963   11.8066 H   0  0  0  0  0  0  0  0  0  0  0  0
  -25.1269  -18.0408    8.9791 H   0  0  0  0  0  0  0  0  0  0  0  0
  1  2  2  0  0  0  0
  1  3  1  0  0  0  0
  1  4  1  0  0  0  0
  1  5  1  0  0  0  0
  6  5  1  1  0  0  0
  6  7  2  0  0  0  0
  6  8  1  0  0  0  0
  6  9  1  0  0  0  0
 10  9  1  6  0  0  0
 10 11  2  0  0  0  0
 10 12  1  0  0  0  0
 10 25  1  0  0  0  0
 13 14  1  0  0  0  0
 13 32  1  0  0  0  0
 14 15  1  0  0  0  0
 14 24  2  0  0  0  0
 16 15  1  6  0  0  0
 16 17  1  0  0  0  0
 16 23  1  0  0  0  0
 17 18  2  0  0  0  0
 17 19  1  0  0  0  0
 19 20  1  0  0  0  0
 19 33  1  0  0  0  0
 20 21  2  0  0  0  0
 20 22  1  0  0  0  0
 21 34  1  0  0  0  0
 21 43  1  0  0  0  0
 22 23  1  0  0  0  0
 22 44  1  0  0  0  0
 23 13  1  6  0  0  0
 25 26  1  0  0  0  0
 26 27  1  0  0  0  0
 26 35  1  0  0  0  0
 26 36  1  0  0  0  0
 27 28  1  0  0  0  0
 27 29  1  0  0  0  0
 27 37  1  1  0  0  0
 28 32  1  0  0  0  0
 29 30  1  0  0  0  0
 29 31  1  0  0  0  0
 29 38  1  6  0  0  0
 30 39  1  0  0  0  0
 31 32  1  0  0  0  0
 31 40  1  0  0  0  0
 31 41  1  0  0  0  0
 32 42  1  1  0  0  0
M  CHG  3  13   1  19   1  22   1
M  END
$$$$
