8IG
 OpenBabel04041914083D

 16 17  0  0  0  0  0  0  0  0999 V2000
   11.5774  -22.0110    0.2284 I   0  0  0  0  0  0  0  0  0  0  0  0
   12.8573  -17.7465   -3.9778 O   0  0  0  0  0  0  0  0  0  0  0  0
   11.7490  -20.0898   -0.4930 C   0  0  0  0  0  0  0  0  0  0  0  0
   11.4280  -18.9667    0.2212 N   0  3  0  0  0  0  0  0  0  0  0  0
   11.5708  -14.4313   -1.0396 N   0  0  0  0  0  0  0  0  0  0  0  0
   12.2065  -16.1474   -2.4719 N   0  3  0  0  0  0  0  0  0  0  0  0
   11.7331  -15.7626   -1.2274 C   0  0  0  0  0  0  0  0  0  0  0  0
   11.4473  -16.5935   -0.2662 N   0  0  0  0  0  0  0  0  0  0  0  0
   11.6551  -17.8953   -0.5952 C   0  0  0  0  0  0  0  0  0  0  0  0
   12.1164  -18.4178   -1.7844 C   0  0  0  0  0  0  0  0  0  0  0  0
   12.4372  -17.4725   -2.8557 C   0  0  0  0  0  0  0  0  0  0  0  0
   12.1727  -19.7885   -1.7117 N   0  0  0  0  0  0  0  0  0  0  0  0
   11.0746  -18.9317    1.1719 H   0  0  0  0  0  0  0  0  0  0  0  0
   11.2284  -14.1098   -0.1434 H   0  0  0  0  0  0  0  0  0  0  0  0
   11.7820  -13.7437   -1.7429 H   0  0  0  0  0  0  0  0  0  0  0  0
   12.4011  -15.4447   -3.1604 H   0  0  0  0  0  0  0  0  0  0  0  0
  1  3  1  0  0  0  0
  2 11  2  0  0  0  0
  3  4  2  0  0  0  0
  3 12  1  0  0  0  0
  4  9  1  0  0  0  0
  4 13  1  0  0  0  0
  5  7  1  0  0  0  0
  5 14  1  0  0  0  0
  5 15  1  0  0  0  0
  6 11  1  0  0  0  0
  6  7  1  0  0  0  0
  6 16  1  0  0  0  0
  7  8  2  0  0  0  0
  8  9  1  0  0  0  0
  9 10  2  0  0  0  0
 10 11  1  0  0  0  0
 10 12  1  0  0  0  0
M  CHG  2   4   1   6   1
M  END
$$$$
