901
 OpenBabel04041916013D

 84 85  0  0  1  0  0  0  0  0999 V2000
   35.8415   30.0449   23.4030 O   0  0  0  0  0  0  0  0  0  0  0  0
   34.8850   29.3066   23.7222 C   0  0  0  0  0  0  0  0  0  0  0  0
   33.9008   29.6577   24.4933 O   0  0  0  0  0  0  0  0  0  0  0  0
   34.7993   27.8467   23.1078 C   0  0  0  0  0  0  0  0  0  0  0  0
   35.0532   26.9523   23.9220 O   0  0  0  0  0  0  0  0  0  0  0  0
   34.4206   27.6367   21.7531 N   0  0  0  0  0  0  0  0  0  0  0  0
   34.3621   26.2937   21.1814 C   0  0  0  0  0  0  0  0  0  0  0  0
   33.1336   25.9269   20.5659 C   0  0  0  0  0  0  0  0  0  0  0  0
   32.9368   24.6677   19.9796 C   0  0  0  0  0  0  0  0  0  0  0  0
   33.9645   23.7337   19.9817 C   0  0  0  0  0  0  0  0  0  0  0  0
   35.1870   24.0496   20.5740 C   0  0  0  0  0  0  0  0  0  0  0  0
   35.4240   25.3164   21.2040 C   0  0  0  0  0  0  0  0  0  0  0  0
   36.8570   25.4390   21.7817 C   0  0  0  0  0  0  0  0  0  0  0  0
   37.6571   24.4802   21.6743 O   0  0  0  0  0  0  0  0  0  0  0  0
   37.1922   26.5714   22.2830 O   0  0  0  0  0  0  0  0  0  0  0  0
   33.8513   28.7420   20.9955 C   0  0  0  0  0  0  0  0  0  0  0  0
   32.5814   29.2539   21.3818 C   0  0  0  0  0  0  0  0  0  0  0  0
   31.9376   30.3625   20.7485 C   0  0  0  0  0  0  0  0  0  0  0  0
   32.5959   31.0333   19.6978 C   0  0  0  0  0  0  0  0  0  0  0  0
   33.8762   30.5041   19.3082 C   0  0  0  0  0  0  0  0  0  0  0  0
   34.5327   29.3775   19.9277 C   0  0  0  0  0  0  0  0  0  0  0  0
   35.9149   28.8874   19.4557 C   0  0  0  0  0  0  0  0  0  0  0  0
   37.0189   29.9455   19.3809 C   0  0  0  0  0  0  0  0  0  0  0  0
   31.9636   32.1843   18.8386 C   0  0  0  0  0  0  0  0  0  0  0  0
   31.2314   31.5394   17.6800 C   0  0  2  0  0  0  0  0  0  0  0  0
   31.1964   32.2309   16.3943 N   0  0  0  0  0  0  0  0  0  0  0  0
   31.1699   33.2995   15.5883 C   0  0  0  0  0  0  0  0  0  0  0  0
   31.5078   33.0185   14.4511 O   0  0  0  0  0  0  0  0  0  0  0  0
   30.8789   34.7208   15.9852 C   0  0  0  0  0  0  0  0  0  0  0  0
   30.0632   30.5771   17.9323 C   0  0  0  0  0  0  0  0  0  0  0  0
   30.2974   29.3863   17.8984 O   0  0  0  0  0  0  0  0  0  0  0  0
   28.7922   31.0856   18.1121 N   0  0  0  0  0  0  0  0  0  0  0  0
   27.6514   30.1980   18.2738 C   0  0  0  0  0  0  0  0  0  0  0  0
   26.7443   30.7357   19.3812 C   0  0  0  0  0  0  0  0  0  0  0  0
   27.4025   30.6712   20.7708 C   0  0  0  0  0  0  0  0  0  0  0  0
   26.5248   31.1784   21.9017 C   0  0  0  0  0  0  0  0  0  0  0  0
   25.3560   30.2416   22.2709 C   0  0  0  0  0  0  0  0  0  0  0  0
   25.4054   29.0954   22.6086 O   0  0  0  0  0  0  0  0  0  0  0  0
   24.2326   31.0482   22.1744 N   0  0  0  0  0  0  0  0  0  0  0  0
   22.8832   30.5196   22.2627 C   0  0  2  0  0  0  0  0  0  0  0  0
   22.6079   29.3905   21.2001 C   0  0  0  0  0  0  0  0  0  0  0  0
   22.0610   28.3569   21.6155 O   0  0  0  0  0  0  0  0  0  0  0  0
   22.9650   29.6919   20.0039 O   0  0  0  0  0  0  0  0  0  0  0  0
   21.8946   31.6778   22.0770 C   0  0  0  0  0  0  0  0  0  0  0  0
   21.9559   32.7367   23.1608 C   0  0  0  0  0  0  0  0  0  0  0  0
   21.2674   32.3600   24.8254 S   0  0  0  0  0  0  0  0  0  0  0  0
   19.6002   31.7070   25.0129 C   0  0  0  0  0  0  0  0  0  0  0  0
   32.2901   26.6203   20.5642 H   0  0  0  0  0  0  0  0  0  0  0  0
   31.9848   24.4267   19.5177 H   0  0  0  0  0  0  0  0  0  0  0  0
   33.8227   22.7568   19.5283 H   0  0  0  0  0  0  0  0  0  0  0  0
   35.9906   23.3113   20.5615 H   0  0  0  0  0  0  0  0  0  0  0  0
   32.0826   28.7541   22.2169 H   0  0  0  0  0  0  0  0  0  0  0  0
   30.9520   30.6421   21.1220 H   0  0  0  0  0  0  0  0  0  0  0  0
   34.3812   30.9951   18.4803 H   0  0  0  0  0  0  0  0  0  0  0  0
   35.8207   28.4364   18.4552 H   0  0  0  0  0  0  0  0  0  0  0  0
   36.2810   28.1005   20.1282 H   0  0  0  0  0  0  0  0  0  0  0  0
   37.9695   29.5033   19.0407 H   0  0  0  0  0  0  0  0  0  0  0  0
   37.1876   30.3943   20.3655 H   0  0  0  0  0  0  0  0  0  0  0  0
   36.7476   30.7374   18.6754 H   0  0  0  0  0  0  0  0  0  0  0  0
   32.7718   32.8256   18.4135 H   0  0  0  0  0  0  0  0  0  0  0  0
   31.3045   32.8813   19.3798 H   0  0  0  0  0  0  0  0  0  0  0  0
   31.9297   30.7255   17.3824 H   0  0  0  0  0  0  0  0  0  0  0  0
   31.4297   31.5254   15.7268 H   0  0  0  0  0  0  0  0  0  0  0  0
   30.8632   35.3345   15.0703 H   0  0  0  0  0  0  0  0  0  0  0  0
   31.6791   35.0808   16.6294 H   0  0  0  0  0  0  0  0  0  0  0  0
   29.9143   34.8172   16.4822 H   0  0  0  0  0  0  0  0  0  0  0  0
   28.6548   32.0665   18.1331 H   0  0  0  0  0  0  0  0  0  0  0  0
   27.9907   29.1848   18.5026 H   0  0  0  0  0  0  0  0  0  0  0  0
   27.1153   30.1759   17.3109 H   0  0  0  0  0  0  0  0  0  0  0  0
   25.8310   30.1393   19.3807 H   0  0  0  0  0  0  0  0  0  0  0  0
   26.4889   31.7750   19.1400 H   0  0  0  0  0  0  0  0  0  0  0  0
   28.3149   31.2839   20.7586 H   0  0  0  0  0  0  0  0  0  0  0  0
   27.6766   29.6410   20.9927 H   0  0  0  0  0  0  0  0  0  0  0  0
   26.1150   32.1585   21.5994 H   0  0  0  0  0  0  0  0  0  0  0  0
   27.1122   31.3693   22.8082 H   0  0  0  0  0  0  0  0  0  0  0  0
   24.3683   32.0013   21.9047 H   0  0  0  0  0  0  0  0  0  0  0  0
   22.7726   30.1002   23.2649 H   0  0  0  0  0  0  0  0  0  0  0  0
   20.8803   31.2943   22.0429 H   0  0  0  0  0  0  0  0  0  0  0  0
   22.1123   32.1839   21.1241 H   0  0  0  0  0  0  0  0  0  0  0  0
   21.5729   33.7015   22.8114 H   0  0  0  0  0  0  0  0  0  0  0  0
   23.0097   32.9162   23.4487 H   0  0  0  0  0  0  0  0  0  0  0  0
   19.5445   31.5954   26.1237 H   0  0  0  0  0  0  0  0  0  0  0  0
   19.4762   30.7196   24.5665 H   0  0  0  0  0  0  0  0  0  0  0  0
   18.8347   32.4248   24.7094 H   0  0  0  0  0  0  0  0  0  0  0  0
  1  2  2  0  0  0  0
  2  3  1  0  0  0  0
  2  4  1  0  0  0  0
  4  5  2  0  0  0  0
  4  6  1  0  0  0  0
  6  7  1  0  0  0  0
  6 16  1  0  0  0  0
  7  8  2  0  0  0  0
  7 12  1  0  0  0  0
  8  9  1  0  0  0  0
  8 48  1  0  0  0  0
  9 10  2  0  0  0  0
  9 49  1  0  0  0  0
 10 11  1  0  0  0  0
 10 50  1  0  0  0  0
 11 12  2  0  0  0  0
 11 51  1  0  0  0  0
 12 13  1  0  0  0  0
 13 14  2  0  0  0  0
 13 15  1  0  0  0  0
 16 17  2  0  0  0  0
 16 21  1  0  0  0  0
 17 18  1  0  0  0  0
 17 52  1  0  0  0  0
 18 19  2  0  0  0  0
 18 53  1  0  0  0  0
 19 20  1  0  0  0  0
 19 24  1  0  0  0  0
 20 21  2  0  0  0  0
 20 54  1  0  0  0  0
 21 22  1  0  0  0  0
 22 23  1  0  0  0  0
 22 55  1  0  0  0  0
 22 56  1  0  0  0  0
 23 57  1  0  0  0  0
 23 58  1  0  0  0  0
 23 59  1  0  0  0  0
 24 25  1  0  0  0  0
 24 60  1  0  0  0  0
 24 61  1  0  0  0  0
 25 26  1  0  0  0  0
 25 30  1  0  0  0  0
 25 62  1  6  0  0  0
 26 27  1  0  0  0  0
 26 63  1  0  0  0  0
 27 28  2  0  0  0  0
 27 29  1  0  0  0  0
 29 64  1  0  0  0  0
 29 65  1  0  0  0  0
 29 66  1  0  0  0  0
 30 31  2  0  0  0  0
 30 32  1  0  0  0  0
 32 33  1  0  0  0  0
 32 67  1  0  0  0  0
 33 34  1  0  0  0  0
 33 68  1  0  0  0  0
 33 69  1  0  0  0  0
 34 35  1  0  0  0  0
 34 70  1  0  0  0  0
 34 71  1  0  0  0  0
 35 36  1  0  0  0  0
 35 72  1  0  0  0  0
 35 73  1  0  0  0  0
 36 37  1  0  0  0  0
 36 74  1  0  0  0  0
 36 75  1  0  0  0  0
 37 38  2  0  0  0  0
 37 39  1  0  0  0  0
 39 40  1  0  0  0  0
 39 76  1  0  0  0  0
 40 41  1  0  0  0  0
 40 44  1  0  0  0  0
 40 77  1  1  0  0  0
 41 42  2  0  0  0  0
 41 43  1  0  0  0  0
 44 45  1  0  0  0  0
 44 78  1  0  0  0  0
 44 79  1  0  0  0  0
 45 46  1  0  0  0  0
 45 80  1  0  0  0  0
 45 81  1  0  0  0  0
 46 47  1  0  0  0  0
 47 82  1  0  0  0  0
 47 83  1  0  0  0  0
 47 84  1  0  0  0  0
M  END
$$$$
