915
 OpenBabel04041917523D

 42 43  0  0  1  0  0  0  0  0999 V2000
    9.2930   19.9554   27.7902 C   0  0  0  0  0  0  0  0  0  0  0  0
    8.3380   19.4705   28.6953 C   0  0  0  0  0  0  0  0  0  0  0  0
    8.0753   20.1701   29.8918 C   0  0  0  0  0  0  0  0  0  0  0  0
    8.7764   21.3511   30.1477 C   0  0  0  0  0  0  0  0  0  0  0  0
    9.7122   21.8522   29.2434 C   0  0  0  0  0  0  0  0  0  0  0  0
    9.9613   21.1613   28.0488 C   0  0  0  0  0  0  0  0  0  0  0  0
    8.5356   22.0433   31.2722 F   0  0  0  0  0  0  0  0  0  0  0  0
    7.0603   19.6708   30.8788 C   0  0  0  0  0  0  0  0  0  0  0  0
    9.5079   19.1429   26.2100 S   0  0  0  0  0  0  0  0  0  0  0  0
   10.4733   17.7988   26.4927 N   0  0  0  0  0  0  0  0  0  0  0  0
   11.9408   17.9294   26.4951 C   0  0  1  0  0  0  0  0  0  0  0  0
   12.4218   18.4786   27.8416 C   0  0  0  0  0  0  0  0  0  0  0  0
   13.3403   19.5019   27.7097 N   0  0  0  0  0  0  0  0  0  0  0  0
   13.9455   19.9635   28.8949 O   0  0  0  0  0  0  0  0  0  0  0  0
   12.0619   17.9880   28.9125 O   0  0  0  0  0  0  0  0  0  0  0  0
   10.2695   20.0334   25.3677 O   0  0  0  0  0  0  0  0  0  0  0  0
    8.2103   18.6476   25.8078 O   0  0  0  0  0  0  0  0  0  0  0  0
   12.6618   16.5784   26.2169 C   0  0  0  0  0  0  0  0  0  0  0  0
   12.3272   15.9687   24.8420 C   0  0  0  0  0  0  0  0  0  0  0  0
   13.1454   14.6984   24.5937 C   0  0  0  0  0  0  0  0  0  0  0  0
   14.5431   14.9646   24.6953 O   0  0  0  0  0  0  0  0  0  0  0  0
   14.9128   15.4277   25.9884 C   0  0  0  0  0  0  0  0  0  0  0  0
   14.1986   16.7312   26.3119 C   0  0  0  0  0  0  0  0  0  0  0  0
    7.7848   18.5625   28.4700 H   0  0  0  0  0  0  0  0  0  0  0  0
   10.2323   22.7779   29.4680 H   0  0  0  0  0  0  0  0  0  0  0  0
   10.6552   21.5838   27.3301 H   0  0  0  0  0  0  0  0  0  0  0  0
    6.6080   18.7310   30.5466 H   0  0  0  0  0  0  0  0  0  0  0  0
    6.2550   20.4016   31.0062 H   0  0  0  0  0  0  0  0  0  0  0  0
    7.5322   19.4878   31.8495 H   0  0  0  0  0  0  0  0  0  0  0  0
   10.0108   16.9180   26.7279 H   0  0  0  0  0  0  0  0  0  0  0  0
   12.2237   18.6254   25.6974 H   0  0  0  0  0  0  0  0  0  0  0  0
   13.6754   19.8531   26.8172 H   0  0  0  0  0  0  0  0  0  0  0  0
   14.5816   20.6360   28.5947 H   0  0  0  0  0  0  0  0  0  0  0  0
   12.3506   15.8575   26.9855 H   0  0  0  0  0  0  0  0  0  0  0  0
   12.5687   16.6933   24.0536 H   0  0  0  0  0  0  0  0  0  0  0  0
   11.2624   15.7324   24.7650 H   0  0  0  0  0  0  0  0  0  0  0  0
   12.9587   14.3237   23.5816 H   0  0  0  0  0  0  0  0  0  0  0  0
   12.8715   13.9009   25.2945 H   0  0  0  0  0  0  0  0  0  0  0  0
   15.9962   15.5908   25.9890 H   0  0  0  0  0  0  0  0  0  0  0  0
   14.6947   14.6608   26.7406 H   0  0  0  0  0  0  0  0  0  0  0  0
   14.5057   17.0460   27.3127 H   0  0  0  0  0  0  0  0  0  0  0  0
   14.5281   17.5055   25.6026 H   0  0  0  0  0  0  0  0  0  0  0  0
  1  2  2  0  0  0  0
  1  6  1  0  0  0  0
  1  9  1  0  0  0  0
  2  3  1  0  0  0  0
  2 24  1  0  0  0  0
  3  4  2  0  0  0  0
  3  8  1  0  0  0  0
  4  5  1  0  0  0  0
  4  7  1  0  0  0  0
  5  6  2  0  0  0  0
  5 25  1  0  0  0  0
  6 26  1  0  0  0  0
  8 27  1  0  0  0  0
  8 28  1  0  0  0  0
  8 29  1  0  0  0  0
  9 10  1  0  0  0  0
  9 16  2  0  0  0  0
  9 17  2  0  0  0  0
 10 11  1  0  0  0  0
 10 30  1  0  0  0  0
 11 12  1  0  0  0  0
 11 18  1  0  0  0  0
 11 31  1  6  0  0  0
 12 13  1  0  0  0  0
 12 15  2  0  0  0  0
 13 14  1  0  0  0  0
 13 32  1  0  0  0  0
 14 33  1  0  0  0  0
 18 19  1  0  0  0  0
 18 23  1  0  0  0  0
 18 34  1  0  0  0  0
 19 20  1  0  0  0  0
 19 35  1  0  0  0  0
 19 36  1  0  0  0  0
 20 21  1  0  0  0  0
 20 37  1  0  0  0  0
 20 38  1  0  0  0  0
 21 22  1  0  0  0  0
 22 23  1  0  0  0  0
 22 39  1  0  0  0  0
 22 40  1  0  0  0  0
 23 41  1  0  0  0  0
 23 42  1  0  0  0  0
M  END
$$$$
