941
 OpenBabel04041916293D

 77 78  0  0  1  0  0  0  0  0999 V2000
   34.4294   29.7557   19.8189 C   0  0  0  0  0  0  0  0  0  0  0  0
   33.7896   29.1302   20.8772 C   0  0  0  0  0  0  0  0  0  0  0  0
   32.4479   29.4441   21.1126 C   0  0  0  0  0  0  0  0  0  0  0  0
   31.7542   30.3548   20.3124 C   0  0  0  0  0  0  0  0  0  0  0  0
   32.3876   30.9824   19.2342 C   0  0  0  0  0  0  0  0  0  0  0  0
   33.7411   30.6749   18.9947 C   0  0  0  0  0  0  0  0  0  0  0  0
   31.1907   31.3540   16.9615 C   0  0  2  0  0  0  0  0  0  0  0  0
   30.3558   32.3655   16.2552 N   0  0  0  0  0  0  0  0  0  0  0  0
   30.3014   32.5591   14.9060 C   0  0  0  0  0  0  0  0  0  0  0  0
   30.4674   29.9778   17.1083 C   0  0  0  0  0  0  0  0  0  0  0  0
   29.1285   30.0626   17.4288 N   0  0  0  0  0  0  0  0  0  0  0  0
   28.3156   28.9123   17.8084 C   0  0  0  0  0  0  0  0  0  0  0  0
   27.1856   29.3260   18.7630 C   0  0  0  0  0  0  0  0  0  0  0  0
   26.5424   30.7459   20.7996 C   0  0  0  0  0  0  0  0  0  0  0  0
   27.6594   30.2967   19.8552 C   0  0  0  0  0  0  0  0  0  0  0  0
   26.1308   29.6325   21.5970 O   0  0  0  0  0  0  0  0  0  0  0  0
   30.9118   31.9142   14.0616 O   0  0  0  0  0  0  0  0  0  0  0  0
   29.4124   33.5519   14.6444 O   0  0  0  0  0  0  0  0  0  0  0  0
   35.6357   27.6943   21.7045 C   0  0  0  0  0  0  0  0  0  0  0  0
   31.0629   28.9064   17.0741 O   0  0  0  0  0  0  0  0  0  0  0  0
   31.6045   31.9202   18.3444 C   0  0  0  0  0  0  0  0  0  0  0  0
   36.7167   28.6745   22.1874 C   0  0  0  0  0  0  0  0  0  0  0  0
   35.7299   26.4535   22.6306 C   0  0  0  0  0  0  0  0  0  0  0  0
   34.9281   26.3705   23.6187 O   0  0  0  0  0  0  0  0  0  0  0  0
   36.5070   25.5093   22.2389 O   0  0  0  0  0  0  0  0  0  0  0  0
   24.8769   29.6451   22.1338 C   0  0  0  0  0  0  0  0  0  0  0  0
   24.1806   30.8284   22.4507 C   0  0  0  0  0  0  0  0  0  0  0  0
   22.9127   30.7797   23.0429 C   0  0  0  0  0  0  0  0  0  0  0  0
   22.3225   29.5577   23.3428 C   0  0  0  0  0  0  0  0  0  0  0  0
   23.0111   28.3724   23.0450 C   0  0  0  0  0  0  0  0  0  0  0  0
   24.2862   28.3959   22.4560 C   0  0  0  0  0  0  0  0  0  0  0  0
   25.0142   27.0973   22.2309 C   0  0  0  0  0  0  0  0  0  0  0  0
   25.2775   26.3099   23.1098 O   0  0  0  0  0  0  0  0  0  0  0  0
   25.2439   26.9225   20.9017 O   0  0  0  0  0  0  0  0  0  0  0  0
   25.9095   25.7028   20.5497 C   0  0  0  0  0  0  0  0  0  0  0  0
   22.3991   27.1824   23.3225 O   0  0  0  0  0  0  0  0  0  0  0  0
   36.3573   29.6847   22.8733 O   0  0  0  0  0  0  0  0  0  0  0  0
   37.8844   28.5015   21.7007 O   0  0  0  0  0  0  0  0  0  0  0  0
   34.2855   28.2338   21.7745 O   0  0  0  0  0  0  0  0  0  0  0  0
   28.3661   33.3836   13.6422 C   0  0  0  0  0  0  0  0  0  0  0  0
   27.6223   32.0733   13.9111 C   0  0  0  0  0  0  0  0  0  0  0  0
   28.8418   33.4423   12.1870 C   0  0  0  0  0  0  0  0  0  0  0  0
   27.3707   34.5413   13.8674 C   0  0  0  0  0  0  0  0  0  0  0  0
   35.4831   29.5456   19.6215 H   0  0  0  0  0  0  0  0  0  0  0  0
   31.9439   28.9478   21.9404 H   0  0  0  0  0  0  0  0  0  0  0  0
   30.7137   30.5597   20.5500 H   0  0  0  0  0  0  0  0  0  0  0  0
   34.2706   31.1547   18.1825 H   0  0  0  0  0  0  0  0  0  0  0  0
   32.0816   31.1747   16.3468 H   0  0  0  0  0  0  0  0  0  0  0  0
   29.7678   32.9869   16.7924 H   0  0  0  0  0  0  0  0  0  0  0  0
   28.6994   30.9696   17.3912 H   0  0  0  0  0  0  0  0  0  0  0  0
   28.9374   28.1293   18.2590 H   0  0  0  0  0  0  0  0  0  0  0  0
   27.8863   28.4938   16.8897 H   0  0  0  0  0  0  0  0  0  0  0  0
   26.7502   28.4273   19.2152 H   0  0  0  0  0  0  0  0  0  0  0  0
   26.3873   29.8016   18.1802 H   0  0  0  0  0  0  0  0  0  0  0  0
   26.9414   31.5390   21.4468 H   0  0  0  0  0  0  0  0  0  0  0  0
   25.7149   31.1552   20.2079 H   0  0  0  0  0  0  0  0  0  0  0  0
   28.0720   31.2008   19.3902 H   0  0  0  0  0  0  0  0  0  0  0  0
   28.4631   29.8185   20.4237 H   0  0  0  0  0  0  0  0  0  0  0  0
   35.8432   27.3640   20.6808 H   0  0  0  0  0  0  0  0  0  0  0  0
   32.2009   32.8316   18.1927 H   0  0  0  0  0  0  0  0  0  0  0  0
   30.7129   32.2637   18.8865 H   0  0  0  0  0  0  0  0  0  0  0  0
   24.6200   31.8057   22.2764 H   0  0  0  0  0  0  0  0  0  0  0  0
   22.3881   31.7033   23.2912 H   0  0  0  0  0  0  0  0  0  0  0  0
   21.3455   29.5380   23.8049 H   0  0  0  0  0  0  0  0  0  0  0  0
   26.0465   25.6833   19.4561 H   0  0  0  0  0  0  0  0  0  0  0  0
   25.3054   24.8290   20.8157 H   0  0  0  0  0  0  0  0  0  0  0  0
   26.9015   25.6380   21.0053 H   0  0  0  0  0  0  0  0  0  0  0  0
   21.5603   27.3467   23.7891 H   0  0  0  0  0  0  0  0  0  0  0  0
   26.7491   31.9703   13.2600 H   0  0  0  0  0  0  0  0  0  0  0  0
   27.2888   32.0312   14.9542 H   0  0  0  0  0  0  0  0  0  0  0  0
   28.2736   31.2091   13.7465 H   0  0  0  0  0  0  0  0  0  0  0  0
   27.9853   33.3422   11.5027 H   0  0  0  0  0  0  0  0  0  0  0  0
   29.5428   32.6389   11.9521 H   0  0  0  0  0  0  0  0  0  0  0  0
   29.3358   34.3918   11.9566 H   0  0  0  0  0  0  0  0  0  0  0  0
   26.4933   34.4473   13.2171 H   0  0  0  0  0  0  0  0  0  0  0  0
   27.8315   35.5170   13.6728 H   0  0  0  0  0  0  0  0  0  0  0  0
   27.0208   34.5624   14.9061 H   0  0  0  0  0  0  0  0  0  0  0  0
  1  2  2  0  0  0  0
  1  6  1  0  0  0  0
  1 44  1  0  0  0  0
  2  3  1  0  0  0  0
  2 39  1  0  0  0  0
  3  4  2  0  0  0  0
  3 45  1  0  0  0  0
  4  5  1  0  0  0  0
  4 46  1  0  0  0  0
  5  6  2  0  0  0  0
  5 21  1  0  0  0  0
  6 47  1  0  0  0  0
  7  8  1  0  0  0  0
  7 10  1  0  0  0  0
  7 21  1  0  0  0  0
  7 48  1  6  0  0  0
  8  9  1  0  0  0  0
  8 49  1  0  0  0  0
  9 17  2  0  0  0  0
  9 18  1  0  0  0  0
 10 11  1  0  0  0  0
 10 20  2  0  0  0  0
 11 12  1  0  0  0  0
 11 50  1  0  0  0  0
 12 13  1  0  0  0  0
 12 51  1  0  0  0  0
 12 52  1  0  0  0  0
 13 15  1  0  0  0  0
 13 53  1  0  0  0  0
 13 54  1  0  0  0  0
 14 16  1  0  0  0  0
 14 15  1  0  0  0  0
 14 55  1  0  0  0  0
 14 56  1  0  0  0  0
 15 57  1  0  0  0  0
 15 58  1  0  0  0  0
 16 26  1  0  0  0  0
 18 40  1  0  0  0  0
 19 39  1  0  0  0  0
 19 23  1  0  0  0  0
 19 22  1  0  0  0  0
 19 59  1  0  0  0  0
 21 60  1  0  0  0  0
 21 61  1  0  0  0  0
 22 37  2  0  0  0  0
 22 38  1  0  0  0  0
 23 24  2  0  0  0  0
 23 25  1  0  0  0  0
 26 27  2  0  0  0  0
 26 31  1  0  0  0  0
 27 28  1  0  0  0  0
 27 62  1  0  0  0  0
 28 29  2  0  0  0  0
 28 63  1  0  0  0  0
 29 30  1  0  0  0  0
 29 64  1  0  0  0  0
 30 31  2  0  0  0  0
 30 36  1  0  0  0  0
 31 32  1  0  0  0  0
 32 33  2  0  0  0  0
 32 34  1  0  0  0  0
 34 35  1  0  0  0  0
 35 65  1  0  0  0  0
 35 66  1  0  0  0  0
 35 67  1  0  0  0  0
 36 68  1  0  0  0  0
 40 41  1  0  0  0  0
 40 42  1  0  0  0  0
 40 43  1  0  0  0  0
 41 69  1  0  0  0  0
 41 70  1  0  0  0  0
 41 71  1  0  0  0  0
 42 72  1  0  0  0  0
 42 73  1  0  0  0  0
 42 74  1  0  0  0  0
 43 75  1  0  0  0  0
 43 76  1  0  0  0  0
 43 77  1  0  0  0  0
M  END
$$$$
