950
 OpenBabel04041916023D

 45 47  0  0  0  0  0  0  0  0999 V2000
   44.1702   -3.0937   25.5632 C   0  0  0  0  0  0  0  0  0  0  0  0
   44.1814   -1.6894   25.5390 C   0  0  0  0  0  0  0  0  0  0  0  0
   44.3543   -1.0574   24.3609 F   0  0  0  0  0  0  0  0  0  0  0  0
   44.0570   -0.9007   26.6747 C   0  0  0  0  0  0  0  0  0  0  0  0
   43.8968   -1.6059   27.8509 C   0  0  0  0  0  0  0  0  0  0  0  0
   43.8718   -2.9848   27.9429 C   0  0  0  0  0  0  0  0  0  0  0  0
   44.0144   -3.7631   26.7911 C   0  0  0  0  0  0  0  0  0  0  0  0
   44.3396   -3.8502   24.3199 C   0  0  0  0  0  0  0  0  0  0  0  0
   43.9486   -5.1026   24.2407 N   0  0  0  0  0  0  0  0  0  0  0  0
   44.9291   -3.2866   23.2858 N   0  0  0  0  0  0  0  0  0  0  0  0
   43.7292   -1.1953   29.1332 N   0  3  0  0  0  0  0  0  0  0  0  0
   43.7059   -3.4052   29.2287 N   0  0  0  0  0  0  0  0  0  0  0  0
   43.6171   -2.2957   29.9365 C   0  0  0  0  0  0  0  0  0  0  0  0
   43.4229   -2.1939   31.3733 C   0  0  0  0  0  0  0  0  0  0  0  0
   43.2553   -3.3709   32.1015 C   0  0  0  0  0  0  0  0  0  0  0  0
   43.0657   -3.3163   33.4743 C   0  0  0  0  0  0  0  0  0  0  0  0
   43.0546   -2.0758   34.1444 C   0  0  0  0  0  0  0  0  0  0  0  0
   43.2504   -0.8847   33.4307 C   0  0  0  0  0  0  0  0  0  0  0  0
   43.4294   -0.9558   32.0440 C   0  0  0  0  0  0  0  0  0  0  0  0
   43.6604    0.1900   31.3202 O   0  0  0  0  0  0  0  0  0  0  0  0
   43.2818    0.3699   33.9856 O   0  0  0  0  0  0  0  0  0  0  0  0
   43.3660    0.4701   35.4172 C   0  0  0  0  0  0  0  0  0  0  0  0
   43.7734    1.8999   35.8587 C   0  0  0  0  0  0  0  0  0  0  0  0
   44.7514    1.8520   37.0393 C   0  0  0  0  0  0  0  0  0  0  0  0
   44.3974    2.7325   34.7406 C   0  0  0  0  0  0  0  0  0  0  0  0
   44.0804    0.1826   26.6401 H   0  0  0  0  0  0  0  0  0  0  0  0
   44.0254   -4.8378   26.9029 H   0  0  0  0  0  0  0  0  0  0  0  0
   44.0722   -5.6552   23.4019 H   0  0  0  0  0  0  0  0  0  0  0  0
   45.2134   -2.3037   23.3535 H   0  0  0  0  0  0  0  0  0  0  0  0
   45.0817   -3.7482   22.4233 H   0  0  0  0  0  0  0  0  0  0  0  0
   43.6910   -0.2428   29.4781 H   0  0  0  0  0  0  0  0  0  0  0  0
   43.2773   -4.3331   31.5926 H   0  0  0  0  0  0  0  0  0  0  0  0
   42.9259   -4.2387   34.0287 H   0  0  0  0  0  0  0  0  0  0  0  0
   42.8725   -2.0868   35.2034 H   0  0  0  0  0  0  0  0  0  0  0  0
   44.1483    0.7895   31.9175 H   0  0  0  0  0  0  0  0  0  0  0  0
   44.0975   -0.2495   35.8003 H   0  0  0  0  0  0  0  0  0  0  0  0
   42.3852    0.2343   35.8493 H   0  0  0  0  0  0  0  0  0  0  0  0
   42.8696    2.4240   36.2000 H   0  0  0  0  0  0  0  0  0  0  0  0
   45.0335    2.8630   37.3557 H   0  0  0  0  0  0  0  0  0  0  0  0
   45.6728    1.3294   36.7566 H   0  0  0  0  0  0  0  0  0  0  0  0
   44.3176    1.3389   37.9029 H   0  0  0  0  0  0  0  0  0  0  0  0
   43.7056    2.8533   33.9015 H   0  0  0  0  0  0  0  0  0  0  0  0
   45.3158    2.2622   34.3746 H   0  0  0  0  0  0  0  0  0  0  0  0
   44.6517    3.7354   35.1009 H   0  0  0  0  0  0  0  0  0  0  0  0
   43.4714   -5.5678   25.0096 H   0  0  0  0  0  0  0  0  0  0  0  0
  1  2  2  0  0  0  0
  1  7  1  0  0  0  0
  1  8  1  0  0  0  0
  2  3  1  0  0  0  0
  2  4  1  0  0  0  0
  4  5  2  0  0  0  0
  4 26  1  0  0  0  0
  5  6  1  0  0  0  0
  5 11  1  0  0  0  0
  6  7  2  0  0  0  0
  6 12  1  0  0  0  0
  7 27  1  0  0  0  0
  8  9  2  0  0  0  0
  8 10  1  0  0  0  0
  9 28  1  0  0  0  0
  9 45  1  0  0  0  0
 10 29  1  0  0  0  0
 10 30  1  0  0  0  0
 11 13  2  0  0  0  0
 11 31  1  0  0  0  0
 12 13  1  0  0  0  0
 13 14  1  0  0  0  0
 14 15  2  0  0  0  0
 14 19  1  0  0  0  0
 15 16  1  0  0  0  0
 15 32  1  0  0  0  0
 16 17  2  0  0  0  0
 16 33  1  0  0  0  0
 17 18  1  0  0  0  0
 17 34  1  0  0  0  0
 18 19  2  0  0  0  0
 18 21  1  0  0  0  0
 19 20  1  0  0  0  0
 20 35  1  0  0  0  0
 21 22  1  0  0  0  0
 22 23  1  0  0  0  0
 22 36  1  0  0  0  0
 22 37  1  0  0  0  0
 23 24  1  0  0  0  0
 23 25  1  0  0  0  0
 23 38  1  0  0  0  0
 24 39  1  0  0  0  0
 24 40  1  0  0  0  0
 24 41  1  0  0  0  0
 25 42  1  0  0  0  0
 25 43  1  0  0  0  0
 25 44  1  0  0  0  0
M  CHG  1  11   1
M  END
$$$$
