974
 OpenBabel04041916343D

 68 72  0  0  1  0  0  0  0  0999 V2000
   11.6960   36.4203   12.1457 O   0  0  0  0  0  0  0  0  0  0  0  0
   12.5851   36.1928   11.1178 C   0  0  0  0  0  0  0  0  0  0  0  0
   12.0499   36.0181    9.8454 C   0  0  0  0  0  0  0  0  0  0  0  0
   12.8236   35.5665    8.7534 C   0  0  0  0  0  0  0  0  0  0  0  0
   14.1854   35.2946    8.9881 C   0  0  0  0  0  0  0  0  0  0  0  0
   14.7325   35.4575   10.2703 C   0  0  0  0  0  0  0  0  0  0  0  0
   13.9293   35.9034   11.3219 C   0  0  0  0  0  0  0  0  0  0  0  0
   14.4493   36.0524   12.5670 O   0  0  0  0  0  0  0  0  0  0  0  0
   12.1813   35.3580    7.4405 C   0  0  0  0  0  0  0  0  0  0  0  0
   10.9120   35.6660    7.2660 N   0  0  0  0  0  0  0  0  0  0  0  0
   12.8358   34.8913    6.4008 N   0  0  0  0  0  0  0  0  0  0  0  0
   10.9681   37.7817   13.9700 C   0  0  0  0  0  0  0  0  0  0  0  0
   10.8721   39.0170   14.6394 C   0  0  0  0  0  0  0  0  0  0  0  0
   11.5229   40.1111   14.0331 C   0  0  0  0  0  0  0  0  0  0  0  0
   12.2099   39.9541   12.8288 C   0  0  0  0  0  0  0  0  0  0  0  0
   12.2592   38.7450   12.2601 N   0  3  0  0  0  0  0  0  0  0  0  0
   11.6894   37.6560   12.7765 C   0  0  0  0  0  0  0  0  0  0  0  0
   10.2261   39.1569   15.8555 N   0  0  0  0  0  0  0  0  0  0  0  0
   10.2295   38.0657   16.8734 C   0  0  0  0  0  0  0  0  0  0  0  0
   10.4426   38.7010   18.2426 C   0  0  1  0  0  0  0  0  0  0  0  0
    9.3104   39.6862   18.5273 C   0  0  0  0  0  0  0  0  0  0  0  0
    9.3260   40.7946   17.4820 C   0  0  0  0  0  0  0  0  0  0  0  0
    9.2451   40.2336   16.0644 C   0  0  0  0  0  0  0  0  0  0  0  0
   10.5704   37.7060   19.4000 C   0  0  0  0  0  0  0  0  0  0  0  0
    9.4907   37.3020   19.9094 O   0  0  0  0  0  0  0  0  0  0  0  0
   11.7626   37.4230   19.7106 O   0  0  0  0  0  0  0  0  0  0  0  0
   13.0253   40.8912   12.2666 O   0  0  0  0  0  0  0  0  0  0  0  0
   12.5394   42.1105   11.8748 C   0  0  0  0  0  0  0  0  0  0  0  0
   11.2691   42.3570   11.3554 C   0  0  0  0  0  0  0  0  0  0  0  0
   10.9478   43.6452   10.9159 C   0  0  0  0  0  0  0  0  0  0  0  0
   11.8950   44.6740   10.9794 C   0  0  0  0  0  0  0  0  0  0  0  0
   13.1773   44.4273   11.4735 C   0  0  0  0  0  0  0  0  0  0  0  0
   13.4872   43.1380   11.9187 C   0  0  0  0  0  0  0  0  0  0  0  0
   14.1592   45.4954   11.6488 C   0  0  0  0  0  0  0  0  0  0  0  0
   14.5823   46.4012   10.6956 N   0  3  0  0  0  0  0  0  0  0  0  0
   14.1851   46.4699    9.3095 C   0  0  0  0  0  0  0  0  0  0  0  0
   14.7852   45.7153   12.7915 N   0  0  0  0  0  0  0  0  0  0  0  0
   15.4883   47.2399   11.2937 C   0  0  0  0  0  0  0  0  0  0  0  0
   15.5807   46.8099   12.5912 C   0  0  0  0  0  0  0  0  0  0  0  0
   10.3241   36.7007   14.4395 F   0  0  0  0  0  0  0  0  0  0  0  0
   11.5537   41.3039   14.6472 F   0  0  0  0  0  0  0  0  0  0  0  0
   10.9843   36.1872    9.7451 H   0  0  0  0  0  0  0  0  0  0  0  0
   14.8440   34.9309    8.2037 H   0  0  0  0  0  0  0  0  0  0  0  0
   15.7855   35.2204   10.4314 H   0  0  0  0  0  0  0  0  0  0  0  0
   14.9215   35.2270   12.8013 H   0  0  0  0  0  0  0  0  0  0  0  0
   10.4630   35.5332    6.3572 H   0  0  0  0  0  0  0  0  0  0  0  0
   10.3050   36.0008    7.9928 H   0  0  0  0  0  0  0  0  0  0  0  0
   12.3570   34.7602    5.5178 H   0  0  0  0  0  0  0  0  0  0  0  0
   11.0406   37.3584   16.6633 H   0  0  0  0  0  0  0  0  0  0  0  0
    9.2853   37.5089   16.8079 H   0  0  0  0  0  0  0  0  0  0  0  0
   11.3902   39.2564   18.2088 H   0  0  0  0  0  0  0  0  0  0  0  0
    9.4204   40.1105   19.5313 H   0  0  0  0  0  0  0  0  0  0  0  0
    8.3384   39.1748   18.5033 H   0  0  0  0  0  0  0  0  0  0  0  0
   10.2485   41.3775   17.5933 H   0  0  0  0  0  0  0  0  0  0  0  0
    8.4904   41.4817   17.6544 H   0  0  0  0  0  0  0  0  0  0  0  0
    8.2382   39.8423   15.8747 H   0  0  0  0  0  0  0  0  0  0  0  0
    9.3882   41.0593   15.3590 H   0  0  0  0  0  0  0  0  0  0  0  0
   10.5134   41.5836   11.2776 H   0  0  0  0  0  0  0  0  0  0  0  0
    9.9506   43.8698   10.5397 H   0  0  0  0  0  0  0  0  0  0  0  0
   11.6087   45.6812   10.6843 H   0  0  0  0  0  0  0  0  0  0  0  0
   14.4790   42.9408   12.3278 H   0  0  0  0  0  0  0  0  0  0  0  0
   14.7141   47.2905    8.8169 H   0  0  0  0  0  0  0  0  0  0  0  0
   13.1118   46.6597    9.2512 H   0  0  0  0  0  0  0  0  0  0  0  0
   14.4328   45.5276    8.8140 H   0  0  0  0  0  0  0  0  0  0  0  0
   15.9764   48.0488   10.7693 H   0  0  0  0  0  0  0  0  0  0  0  0
   16.1786   47.2168   13.4030 H   0  0  0  0  0  0  0  0  0  0  0  0
   13.8157   34.6241    6.4441 H   0  0  0  0  0  0  0  0  0  0  0  0
   12.8005   38.6748   11.4085 H   0  0  0  0  0  0  0  0  0  0  0  0
  1 17  1  0  0  0  0
  1  2  1  0  0  0  0
  2  7  2  0  0  0  0
  2  3  1  0  0  0  0
  3  4  2  0  0  0  0
  3 42  1  0  0  0  0
  4  9  1  0  0  0  0
  4  5  1  0  0  0  0
  5  6  2  0  0  0  0
  5 43  1  0  0  0  0
  6  7  1  0  0  0  0
  6 44  1  0  0  0  0
  7  8  1  0  0  0  0
  8 45  1  0  0  0  0
  9 11  2  0  0  0  0
  9 10  1  0  0  0  0
 10 46  1  0  0  0  0
 10 47  1  0  0  0  0
 11 48  1  0  0  0  0
 11 67  1  0  0  0  0
 12 17  1  0  0  0  0
 12 13  2  0  0  0  0
 12 40  1  0  0  0  0
 13 18  1  0  0  0  0
 13 14  1  0  0  0  0
 14 15  2  0  0  0  0
 14 41  1  0  0  0  0
 15 27  1  0  0  0  0
 15 16  1  0  0  0  0
 16 17  2  0  0  0  0
 16 68  1  0  0  0  0
 18 23  1  0  0  0  0
 18 19  1  0  0  0  0
 19 20  1  0  0  0  0
 19 49  1  0  0  0  0
 19 50  1  0  0  0  0
 20 24  1  0  0  0  0
 20 21  1  0  0  0  0
 20 51  1  6  0  0  0
 21 22  1  0  0  0  0
 21 52  1  0  0  0  0
 21 53  1  0  0  0  0
 22 23  1  0  0  0  0
 22 54  1  0  0  0  0
 22 55  1  0  0  0  0
 23 56  1  0  0  0  0
 23 57  1  0  0  0  0
 24 26  2  0  0  0  0
 24 25  1  0  0  0  0
 27 28  1  0  0  0  0
 28 33  2  0  0  0  0
 28 29  1  0  0  0  0
 29 30  2  0  0  0  0
 29 58  1  0  0  0  0
 30 31  1  0  0  0  0
 30 59  1  0  0  0  0
 31 32  2  0  0  0  0
 31 60  1  0  0  0  0
 32 34  1  0  0  0  0
 32 33  1  0  0  0  0
 33 61  1  0  0  0  0
 34 37  1  0  0  0  0
 34 35  2  0  0  0  0
 35 38  1  0  0  0  0
 35 36  1  0  0  0  0
 36 62  1  0  0  0  0
 36 63  1  0  0  0  0
 36 64  1  0  0  0  0
 37 39  1  0  0  0  0
 38 39  2  0  0  0  0
 38 65  1  0  0  0  0
 39 66  1  0  0  0  0
M  CHG  2  16   1  35   1
M  END
$$$$
