989
 OpenBabel04041915563D

 68 70  0  0  1  0  0  0  0  0999 V2000
   36.5251   29.5088   23.9811 O   0  0  0  0  0  0  0  0  0  0  0  0
   35.5848   28.7370   24.3588 C   0  0  0  0  0  0  0  0  0  0  0  0
   34.5821   29.0795   25.0873 O   0  0  0  0  0  0  0  0  0  0  0  0
   35.5737   27.2631   23.8360 C   0  0  0  0  0  0  0  0  0  0  0  0
   35.7302   26.4198   24.7248 O   0  0  0  0  0  0  0  0  0  0  0  0
   35.2707   26.9858   22.4860 N   0  0  0  0  0  0  0  0  0  0  0  0
   35.1345   25.6297   22.0044 C   0  0  0  0  0  0  0  0  0  0  0  0
   33.9107   25.2561   21.3888 C   0  0  0  0  0  0  0  0  0  0  0  0
   33.6706   23.9658   20.9000 C   0  0  0  0  0  0  0  0  0  0  0  0
   34.6614   23.0057   20.9864 C   0  0  0  0  0  0  0  0  0  0  0  0
   35.8685   23.3378   21.5919 C   0  0  0  0  0  0  0  0  0  0  0  0
   36.1287   24.6300   22.1269 C   0  0  0  0  0  0  0  0  0  0  0  0
   37.5265   24.8127   22.6832 C   0  0  0  0  0  0  0  0  0  0  0  0
   38.1893   25.8326   22.3201 O   0  0  0  0  0  0  0  0  0  0  0  0
   38.0145   23.8183   23.3231 O   0  0  0  0  0  0  0  0  0  0  0  0
   34.7139   28.0283   21.6664 C   0  0  0  0  0  0  0  0  0  0  0  0
   33.4616   28.5696   21.9919 C   0  0  0  0  0  0  0  0  0  0  0  0
   32.8966   29.5713   21.2106 C   0  0  0  0  0  0  0  0  0  0  0  0
   33.5836   30.0963   20.1008 C   0  0  0  0  0  0  0  0  0  0  0  0
   34.8821   29.6053   19.7788 C   0  0  0  0  0  0  0  0  0  0  0  0
   35.4384   28.5531   20.5626 C   0  0  0  0  0  0  0  0  0  0  0  0
   36.7362   28.0989   20.2486 C   0  0  0  0  0  0  0  0  0  0  0  0
   37.4844   28.6367   19.2056 C   0  0  0  0  0  0  0  0  0  0  0  0
   36.9494   29.6550   18.4394 C   0  0  0  0  0  0  0  0  0  0  0  0
   35.6670   30.1326   18.7214 C   0  0  0  0  0  0  0  0  0  0  0  0
   32.8910   31.1840   19.3007 C   0  0  0  0  0  0  0  0  0  0  0  0
   32.3195   30.7282   17.9462 C   0  0  2  0  0  0  0  0  0  0  0  0
   31.7109   31.8872   17.2519 N   0  0  0  0  0  0  0  0  0  0  0  0
   32.2131   32.3673   16.0634 C   0  0  0  0  0  0  0  0  0  0  0  0
   33.1719   31.8902   15.4699 O   0  0  0  0  0  0  0  0  0  0  0  0
   31.4579   33.5541   15.5288 C   0  0  0  0  0  0  0  0  0  0  0  0
   31.2877   29.5822   18.0930 C   0  0  0  0  0  0  0  0  0  0  0  0
   31.6136   28.3975   18.0949 O   0  0  0  0  0  0  0  0  0  0  0  0
   29.9806   29.9716   18.3438 N   0  0  0  0  0  0  0  0  0  0  0  0
   28.9328   28.9698   18.4224 C   0  0  0  0  0  0  0  0  0  0  0  0
   27.6997   29.4932   19.1521 C   0  0  0  0  0  0  0  0  0  0  0  0
   27.9514   29.6447   20.6548 C   0  0  0  0  0  0  0  0  0  0  0  0
   26.7204   30.1935   21.3766 C   0  0  0  0  0  0  0  0  0  0  0  0
   27.0897   30.7993   22.7214 C   0  0  0  0  0  0  0  0  0  0  0  0
   33.0921   25.9665   21.3242 H   0  0  0  0  0  0  0  0  0  0  0  0
   32.7090   23.7223   20.4611 H   0  0  0  0  0  0  0  0  0  0  0  0
   34.5110   22.0064   20.5930 H   0  0  0  0  0  0  0  0  0  0  0  0
   36.6599   22.5897   21.6495 H   0  0  0  0  0  0  0  0  0  0  0  0
   32.9229   28.1961   22.8599 H   0  0  0  0  0  0  0  0  0  0  0  0
   31.9166   29.9498   21.4879 H   0  0  0  0  0  0  0  0  0  0  0  0
   37.2088   27.3361   20.8622 H   0  0  0  0  0  0  0  0  0  0  0  0
   38.4886   28.2604   19.0332 H   0  0  0  0  0  0  0  0  0  0  0  0
   37.5342   30.0928   17.6379 H   0  0  0  0  0  0  0  0  0  0  0  0
   35.3042   30.9520   18.1112 H   0  0  0  0  0  0  0  0  0  0  0  0
   33.5952   32.0146   19.1474 H   0  0  0  0  0  0  0  0  0  0  0  0
   32.0882   31.6294   19.9051 H   0  0  0  0  0  0  0  0  0  0  0  0
   33.1163   30.3306   17.3095 H   0  0  0  0  0  0  0  0  0  0  0  0
   31.0208   32.4342   17.7457 H   0  0  0  0  0  0  0  0  0  0  0  0
   31.9118   33.8802   14.5866 H   0  0  0  0  0  0  0  0  0  0  0  0
   31.4986   34.3818   16.2409 H   0  0  0  0  0  0  0  0  0  0  0  0
   30.4185   33.2759   15.3356 H   0  0  0  0  0  0  0  0  0  0  0  0
   29.7221   30.8978   18.0458 H   0  0  0  0  0  0  0  0  0  0  0  0
   29.3145   28.0650   18.9104 H   0  0  0  0  0  0  0  0  0  0  0  0
   28.6700   28.7014   17.3925 H   0  0  0  0  0  0  0  0  0  0  0  0
   26.8640   28.8020   18.9915 H   0  0  0  0  0  0  0  0  0  0  0  0
   27.4063   30.4616   18.7280 H   0  0  0  0  0  0  0  0  0  0  0  0
   28.8084   30.3086   20.8163 H   0  0  0  0  0  0  0  0  0  0  0  0
   28.2169   28.6706   21.0856 H   0  0  0  0  0  0  0  0  0  0  0  0
   25.9918   29.3874   21.5249 H   0  0  0  0  0  0  0  0  0  0  0  0
   26.2304   30.9626   20.7688 H   0  0  0  0  0  0  0  0  0  0  0  0
   26.1952   31.1770   23.2261 H   0  0  0  0  0  0  0  0  0  0  0  0
   27.7801   31.6394   22.5895 H   0  0  0  0  0  0  0  0  0  0  0  0
   27.5675   30.0610   23.3724 H   0  0  0  0  0  0  0  0  0  0  0  0
  1  2  2  0  0  0  0
  2  3  1  0  0  0  0
  2  4  1  0  0  0  0
  4  5  2  0  0  0  0
  4  6  1  0  0  0  0
  6  7  1  0  0  0  0
  6 16  1  0  0  0  0
  7  8  2  0  0  0  0
  7 12  1  0  0  0  0
  8  9  1  0  0  0  0
  8 40  1  0  0  0  0
  9 10  2  0  0  0  0
  9 41  1  0  0  0  0
 10 11  1  0  0  0  0
 10 42  1  0  0  0  0
 11 12  2  0  0  0  0
 11 43  1  0  0  0  0
 12 13  1  0  0  0  0
 13 14  2  0  0  0  0
 13 15  1  0  0  0  0
 16 17  2  0  0  0  0
 16 21  1  0  0  0  0
 17 18  1  0  0  0  0
 17 44  1  0  0  0  0
 18 19  2  0  0  0  0
 18 45  1  0  0  0  0
 19 20  1  0  0  0  0
 19 26  1  0  0  0  0
 20 21  2  0  0  0  0
 20 25  1  0  0  0  0
 21 22  1  0  0  0  0
 22 23  2  0  0  0  0
 22 46  1  0  0  0  0
 23 24  1  0  0  0  0
 23 47  1  0  0  0  0
 24 25  2  0  0  0  0
 24 48  1  0  0  0  0
 25 49  1  0  0  0  0
 26 27  1  0  0  0  0
 26 50  1  0  0  0  0
 26 51  1  0  0  0  0
 27 28  1  0  0  0  0
 27 32  1  0  0  0  0
 27 52  1  6  0  0  0
 28 29  1  0  0  0  0
 28 53  1  0  0  0  0
 29 30  2  0  0  0  0
 29 31  1  0  0  0  0
 31 54  1  0  0  0  0
 31 55  1  0  0  0  0
 31 56  1  0  0  0  0
 32 33  2  0  0  0  0
 32 34  1  0  0  0  0
 34 35  1  0  0  0  0
 34 57  1  0  0  0  0
 35 36  1  0  0  0  0
 35 58  1  0  0  0  0
 35 59  1  0  0  0  0
 36 37  1  0  0  0  0
 36 60  1  0  0  0  0
 36 61  1  0  0  0  0
 37 38  1  0  0  0  0
 37 62  1  0  0  0  0
 37 63  1  0  0  0  0
 38 39  1  0  0  0  0
 38 64  1  0  0  0  0
 38 65  1  0  0  0  0
 39 66  1  0  0  0  0
 39 67  1  0  0  0  0
 39 68  1  0  0  0  0
M  END
$$$$
