991
 OpenBabel04041916033D

 47 50  0  0  1  0  0  0  0  0999 V2000
   43.9364   -3.0283   25.5077 C   0  0  2  0  0  0  0  0  0  0  0  0
   43.7659   -1.6255   25.4373 C   0  0  2  0  0  0  0  0  0  0  0  0
   43.7777   -0.7490   23.9457 Cl  0  0  0  0  0  0  0  0  0  0  0  0
   43.5769   -0.8467   26.5685 C   0  0  0  0  0  0  0  0  0  0  0  0
   43.5410   -1.5299   27.7668 C   0  0  2  0  0  0  0  0  0  0  0  0
   43.6929   -2.9013   27.8804 C   0  0  1  0  0  0  0  0  0  0  0  0
   43.9025   -3.6783   26.7496 C   0  0  0  0  0  0  0  0  0  0  0  0
   44.2222   -3.8324   24.3242 C   0  0  0  0  0  0  0  0  0  0  0  0
   43.7378   -5.0521   24.2141 N   0  0  0  0  0  0  0  0  0  0  0  0
   45.0013   -3.3164   23.4142 N   0  0  0  0  0  0  0  0  0  0  0  0
   43.3575   -1.0369   29.0227 N   0  3  0  0  0  0  0  0  0  0  0  0
   43.6037   -3.2243   29.2369 C   0  0  0  0  0  0  0  0  0  0  0  0
   43.3704   -2.0633   29.9263 C   0  0  1  0  0  0  0  0  0  0  0  0
   43.1889   -1.8614   31.3437 C   0  0  2  0  0  0  0  0  0  0  0  0
   43.0004   -2.9995   32.1466 C   0  0  0  0  0  0  0  0  0  0  0  0
   42.8335   -2.8654   33.5096 C   0  0  0  0  0  0  0  0  0  0  0  0
   42.8561   -1.5974   34.0831 C   0  0  0  0  0  0  0  0  0  0  0  0
   43.0365   -0.4520   33.3096 C   0  0  2  0  0  0  0  0  0  0  0  0
   43.0668    0.8203   33.7771 O   0  0  0  0  0  0  0  0  0  0  0  0
   43.1767   -0.5918   31.9255 C   0  0  1  0  0  0  0  0  0  0  0  0
   43.3260    0.5138   31.1150 O   0  0  0  0  0  0  0  0  0  0  0  0
   42.5187    2.4606   35.3436 C   0  0  0  0  0  0  0  0  0  0  0  0
   43.1298    1.0760   35.1844 C   0  0  0  0  0  0  0  0  0  0  0  0
   44.5781    1.1640   35.6635 C   0  0  0  0  0  0  0  0  0  0  0  0
   44.8655    2.6210   35.9847 C   0  0  0  0  0  0  0  0  0  0  0  0
   43.5332    3.3370   36.0433 C   0  0  0  0  0  0  0  0  0  0  0  0
   43.4571    0.2307   26.5315 H   0  0  0  0  0  0  0  0  0  0  0  0
   44.0542   -4.7464   26.8721 H   0  0  0  0  0  0  0  0  0  0  0  0
   43.9243   -5.6276   23.4035 H   0  0  0  0  0  0  0  0  0  0  0  0
   45.3396   -2.3646   23.5417 H   0  0  0  0  0  0  0  0  0  0  0  0
   45.2362   -3.7866   22.5355 H   0  0  0  0  0  0  0  0  0  0  0  0
   43.2392   -0.0575   29.2642 H   0  0  0  0  0  0  0  0  0  0  0  0
   43.6944   -4.2159   29.6697 H   0  0  0  0  0  0  0  0  0  0  0  0
   42.9929   -3.9896   31.7132 H   0  0  0  0  0  0  0  0  0  0  0  0
   42.6884   -3.7476   34.1189 H   0  0  0  0  0  0  0  0  0  0  0  0
   42.7130   -1.5469   35.1526 H   0  0  0  0  0  0  0  0  0  0  0  0
   42.6047    1.1234   31.3523 H   0  0  0  0  0  0  0  0  0  0  0  0
   42.2630    2.8859   34.3657 H   0  0  0  0  0  0  0  0  0  0  0  0
   41.5899    2.4131   35.9220 H   0  0  0  0  0  0  0  0  0  0  0  0
   42.5566    0.3618   35.7884 H   0  0  0  0  0  0  0  0  0  0  0  0
   45.2824    0.7999   34.9085 H   0  0  0  0  0  0  0  0  0  0  0  0
   44.7223    0.5624   36.5691 H   0  0  0  0  0  0  0  0  0  0  0  0
   45.5047    3.0607   35.2117 H   0  0  0  0  0  0  0  0  0  0  0  0
   45.3944    2.7208   36.9397 H   0  0  0  0  0  0  0  0  0  0  0  0
   43.5994    4.3123   35.5495 H   0  0  0  0  0  0  0  0  0  0  0  0
   43.2329    3.5055   37.0814 H   0  0  0  0  0  0  0  0  0  0  0  0
   43.1457   -5.4588   24.9329 H   0  0  0  0  0  0  0  0  0  0  0  0
  1  2  1  0  0  0  0
  1  7  1  0  0  0  0
  1  8  1  1  0  0  0
  2  3  1  1  0  0  0
  2  4  1  0  0  0  0
  4 27  1  0  0  0  0
  5  4  1  6  0  0  0
  5  6  1  0  0  0  0
  5 11  1  0  0  0  0
  6  7  1  1  0  0  0
  6 12  1  0  0  0  0
  7 28  1  0  0  0  0
  8  9  2  0  0  0  0
  8 10  1  0  0  0  0
  9 29  1  0  0  0  0
  9 47  1  0  0  0  0
 10 30  1  0  0  0  0
 10 31  1  0  0  0  0
 11 32  1  0  0  0  0
 12 13  1  0  0  0  0
 12 33  1  0  0  0  0
 13 11  1  1  0  0  0
 13 14  1  0  0  0  0
 14 15  1  6  0  0  0
 14 20  1  0  0  0  0
 15 16  1  0  0  0  0
 15 34  1  0  0  0  0
 16 17  1  0  0  0  0
 16 35  1  0  0  0  0
 17 18  1  0  0  0  0
 17 36  1  0  0  0  0
 18 19  1  6  0  0  0
 18 20  1  0  0  0  0
 19 23  1  0  0  0  0
 20 21  1  1  0  0  0
 21 37  1  0  0  0  0
 22 26  1  0  0  0  0
 22 23  1  0  0  0  0
 22 38  1  0  0  0  0
 22 39  1  0  0  0  0
 23 24  1  0  0  0  0
 23 40  1  0  0  0  0
 24 25  1  0  0  0  0
 24 41  1  0  0  0  0
 24 42  1  0  0  0  0
 25 26  1  0  0  0  0
 25 43  1  0  0  0  0
 25 44  1  0  0  0  0
 26 45  1  0  0  0  0
 26 46  1  0  0  0  0
M  CHG  1  11   1
M  END
$$$$
