9AM
 OpenBabel04041914373D

 38 38  0  0  1  0  0  0  0  0999 V2000
   23.5015   19.7774   64.8220 C   0  0  0  0  0  0  0  0  0  0  0  0
   24.1664   18.6500   63.9409 C   0  0  0  0  0  0  0  0  0  0  0  0
   23.5182   17.5343   63.5805 C   0  0  0  0  0  0  0  0  0  0  0  0
   24.1211   16.5514   62.6322 C   0  0  1  0  0  0  0  0  0  0  0  0
   25.6688   16.6569   62.6247 C   0  0  2  0  0  0  0  0  0  0  0  0
   26.0348   18.1422   62.5050 C   0  0  2  0  0  0  0  0  0  0  0  0
   27.5477   18.4402   62.6180 C   0  0  1  0  0  0  0  0  0  0  0  0
   27.8371   19.9186   62.2757 C   0  0  1  0  0  0  0  0  0  0  0  0
   29.1511   20.4311   62.8762 C   0  0  0  0  0  0  0  0  0  0  0  0
   27.0847   14.8216   61.6839 C   0  0  0  0  0  0  0  0  0  0  0  0
   27.4898   14.1334   60.4113 C   0  0  0  0  0  0  0  0  0  0  0  0
   26.2419   15.8940   61.4899 N   0  0  0  0  0  0  0  0  0  0  0  0
   24.2442   20.7915   64.9980 O   0  0  0  0  0  0  0  0  0  0  0  0
   22.3182   19.5510   65.1975 O   0  0  0  0  0  0  0  0  0  0  0  0
   23.7128   15.2265   62.9537 O   0  0  0  0  0  0  0  0  0  0  0  0
   25.4624   18.9353   63.5400 O   0  0  0  0  0  0  0  0  0  0  0  0
   28.0458   18.1897   63.9393 O   0  0  0  0  0  0  0  0  0  0  0  0
   27.9466   20.0609   60.8477 O   0  0  0  0  0  0  0  0  0  0  0  0
   30.2919   19.6531   62.3130 N   0  3  0  0  0  0  0  0  0  0  0  0
   27.5381   14.4941   62.7733 O   0  0  0  0  0  0  0  0  0  0  0  0
   22.5088   17.3658   63.9530 H   0  0  0  0  0  0  0  0  0  0  0  0
   23.7396   16.7526   61.6262 H   0  0  0  0  0  0  0  0  0  0  0  0
   26.0513   16.2377   63.5596 H   0  0  0  0  0  0  0  0  0  0  0  0
   25.6786   18.5214   61.5391 H   0  0  0  0  0  0  0  0  0  0  0  0
   28.1002   17.7872   61.9291 H   0  0  0  0  0  0  0  0  0  0  0  0
   27.0270   20.5638   62.6346 H   0  0  0  0  0  0  0  0  0  0  0  0
   29.2040   20.3617   63.9648 H   0  0  0  0  0  0  0  0  0  0  0  0
   29.3243   21.4663   62.5663 H   0  0  0  0  0  0  0  0  0  0  0  0
   28.1603   13.3030   60.6480 H   0  0  0  0  0  0  0  0  0  0  0  0
   28.0211   14.8369   59.7638 H   0  0  0  0  0  0  0  0  0  0  0  0
   26.6122   13.7380   59.8941 H   0  0  0  0  0  0  0  0  0  0  0  0
   25.8646   16.0564   60.5634 H   0  0  0  0  0  0  0  0  0  0  0  0
   22.7401   15.2407   63.0196 H   0  0  0  0  0  0  0  0  0  0  0  0
   27.3317   18.4793   64.5556 H   0  0  0  0  0  0  0  0  0  0  0  0
   27.7275   20.9914   60.6383 H   0  0  0  0  0  0  0  0  0  0  0  0
   31.1953   20.0074   62.6383 H   0  0  0  0  0  0  0  0  0  0  0  0
   30.2079   18.6677   62.6036 H   0  0  0  0  0  0  0  0  0  0  0  0
   30.2530   19.6798   61.2841 H   0  0  0  0  0  0  0  0  0  0  0  0
  1 14  2  0  0  0  0
  1 13  1  0  0  0  0
  1  2  1  0  0  0  0
  2 16  1  0  0  0  0
  2  3  2  0  0  0  0
  3  4  1  0  0  0  0
  3 21  1  0  0  0  0
  4 15  1  0  0  0  0
  4  5  1  0  0  0  0
  4 22  1  6  0  0  0
  5 12  1  0  0  0  0
  5  6  1  0  0  0  0
  5 23  1  1  0  0  0
  6 16  1  0  0  0  0
  6  7  1  0  0  0  0
  6 24  1  6  0  0  0
  7 17  1  0  0  0  0
  7  8  1  0  0  0  0
  7 25  1  6  0  0  0
  8 18  1  0  0  0  0
  8  9  1  0  0  0  0
  8 26  1  1  0  0  0
  9 19  1  0  0  0  0
  9 27  1  0  0  0  0
  9 28  1  0  0  0  0
 10 12  1  0  0  0  0
 10 20  2  0  0  0  0
 10 11  1  0  0  0  0
 11 29  1  0  0  0  0
 11 30  1  0  0  0  0
 11 31  1  0  0  0  0
 12 32  1  0  0  0  0
 15 33  1  0  0  0  0
 17 34  1  0  0  0  0
 18 35  1  0  0  0  0
 19 36  1  0  0  0  0
 19 37  1  0  0  0  0
 19 38  1  0  0  0  0
M  CHG  1  19   1
M  END
$$$$
