9AR
 OpenBabel04041914423D

 36 39  0  0  0  0  0  0  0  0999 V2000
   15.4871   22.9936   40.4096 C   0  0  0  0  0  0  0  0  0  0  0  0
   14.0965   22.9144   40.1854 C   0  0  0  0  0  0  0  0  0  0  0  0
   13.2448   22.9276   41.2379 C   0  0  0  0  0  0  0  0  0  0  0  0
   13.7163   22.9568   42.5377 C   0  0  0  0  0  0  0  0  0  0  0  0
   15.1141   22.9754   42.8960 C   0  0  0  0  0  0  0  0  0  0  0  0
   16.0576   23.0440   41.7697 C   0  0  0  0  0  0  0  0  0  0  0  0
   15.6187   22.9410   44.2963 C   0  0  0  0  0  0  0  0  0  0  0  0
   17.0358   22.8734   44.5897 C   0  0  0  0  0  0  0  0  0  0  0  0
   17.8763   22.9872   43.5025 C   0  0  0  0  0  0  0  0  0  0  0  0
   17.4470   23.1179   42.1616 C   0  0  0  0  0  0  0  0  0  0  0  0
   14.7906   22.9853   45.4517 C   0  0  0  0  0  0  0  0  0  0  0  0
   15.3013   23.0062   46.7558 C   0  0  0  0  0  0  0  0  0  0  0  0
   16.6645   22.9121   46.9698 C   0  0  0  0  0  0  0  0  0  0  0  0
   17.5618   22.7844   45.9095 C   0  0  0  0  0  0  0  0  0  0  0  0
   11.5059   22.8941   42.4897 C   0  0  0  0  0  0  0  0  0  0  0  0
   16.2800   22.9227   39.1128 C   0  0  0  0  0  0  0  0  0  0  0  0
   19.9634   21.9950   46.0174 C   0  0  0  0  0  0  0  0  0  0  0  0
   18.8860   22.9044   46.2949 O   0  0  0  0  0  0  0  0  0  0  0  0
   11.8907   22.8527   41.1214 O   0  0  0  0  0  0  0  0  0  0  0  0
   12.6291   22.9258   43.3936 O   0  0  0  0  0  0  0  0  0  0  0  0
   17.2394   22.0863   39.0960 O   0  0  0  0  0  0  0  0  0  0  0  0
   15.8482   23.6033   38.1476 O   0  0  0  0  0  0  0  0  0  0  0  0
   17.0999   23.0219   48.2634 O   0  0  0  0  0  0  0  0  0  0  0  0
   18.4345   24.2330   40.3401 O   0  0  0  0  0  0  0  0  0  0  0  0
   19.7159   23.0453   41.6377 O   0  0  0  0  0  0  0  0  0  0  0  0
   18.6029   23.4191   41.2630 N   0  0  0  0  0  0  0  0  0  0  0  0
   13.7011   22.8297   39.1655 H   0  0  0  0  0  0  0  0  0  0  0  0
   18.9432   23.0142   43.7222 H   0  0  0  0  0  0  0  0  0  0  0  0
   13.7119   23.0442   45.3649 H   0  0  0  0  0  0  0  0  0  0  0  0
   14.6279   23.0980   47.6048 H   0  0  0  0  0  0  0  0  0  0  0  0
   10.8687   23.7852   42.6506 H   0  0  0  0  0  0  0  0  0  0  0  0
   10.8789   22.0126   42.7066 H   0  0  0  0  0  0  0  0  0  0  0  0
   20.8467   22.4817   46.4609 H   0  0  0  0  0  0  0  0  0  0  0  0
   20.2197   21.8516   44.9628 H   0  0  0  0  0  0  0  0  0  0  0  0
   19.8886   21.0307   46.5363 H   0  0  0  0  0  0  0  0  0  0  0  0
   18.0724   23.0426   48.2101 H   0  0  0  0  0  0  0  0  0  0  0  0
  1 16  1  0  0  0  0
  1  6  2  0  0  0  0
  1  2  1  0  0  0  0
  2  3  2  0  0  0  0
  2 27  1  0  0  0  0
  3 19  1  0  0  0  0
  3  4  1  0  0  0  0
  4 20  1  0  0  0  0
  4  5  2  0  0  0  0
  5  7  1  0  0  0  0
  5  6  1  0  0  0  0
  6 10  1  0  0  0  0
  7  8  1  0  0  0  0
  7 11  2  0  0  0  0
  8  9  1  0  0  0  0
  8 14  2  0  0  0  0
  9 10  2  0  0  0  0
  9 28  1  0  0  0  0
 10 26  1  0  0  0  0
 11 12  1  0  0  0  0
 11 29  1  0  0  0  0
 12 13  2  0  0  0  0
 12 30  1  0  0  0  0
 13 23  1  0  0  0  0
 13 14  1  0  0  0  0
 14 18  1  0  0  0  0
 15 20  1  0  0  0  0
 15 19  1  0  0  0  0
 15 31  1  0  0  0  0
 15 32  1  0  0  0  0
 16 22  2  0  0  0  0
 16 21  1  0  0  0  0
 17 18  1  0  0  0  0
 17 33  1  0  0  0  0
 17 34  1  0  0  0  0
 17 35  1  0  0  0  0
 23 36  1  0  0  0  0
 24 26  2  0  0  0  0
 25 26  2  0  0  0  0
M  END
$$$$
