A2G
 OpenBabel04041913593D

 30 30  0  0  1  0  0  0  0  0999 V2000
   17.1341   -1.2442   36.3846 C   0  0  1  0  0  0  0  0  0  0  0  0
   16.0829   -0.6247   35.4376 C   0  0  1  0  0  0  0  0  0  0  0  0
   14.7024   -1.2589   35.6994 C   0  0  2  0  0  0  0  0  0  0  0  0
   14.7886   -2.7884   35.6929 C   0  0  2  0  0  0  0  0  0  0  0  0
   15.8733   -3.2527   36.6709 C   0  0  1  0  0  0  0  0  0  0  0  0
   16.0329   -4.7746   36.6523 C   0  0  0  0  0  0  0  0  0  0  0  0
   16.2045    1.7054   34.5621 C   0  0  0  0  0  0  0  0  0  0  0  0
   16.1022    3.1526   34.9567 C   0  0  0  0  0  0  0  0  0  0  0  0
   16.0285    0.8356   35.6066 N   0  0  0  0  0  0  0  0  0  0  0  0
   16.8959   -0.8282   37.7280 O   0  0  0  0  0  0  0  0  0  0  0  0
   13.7555   -0.8530   34.6965 O   0  0  0  0  0  0  0  0  0  0  0  0
   15.0576   -3.2628   34.3663 O   0  0  0  0  0  0  0  0  0  0  0  0
   17.1452   -2.6611   36.3444 O   0  0  0  0  0  0  0  0  0  0  0  0
   16.7838   -5.1862   37.7987 O   0  0  0  0  0  0  0  0  0  0  0  0
   16.4469    1.3584   33.4093 O   0  0  0  0  0  0  0  0  0  0  0  0
   18.1307   -0.8849   36.1039 H   0  0  0  0  0  0  0  0  0  0  0  0
   16.3684   -0.8490   34.4002 H   0  0  0  0  0  0  0  0  0  0  0  0
   14.3205   -0.9123   36.6695 H   0  0  0  0  0  0  0  0  0  0  0  0
   13.8164   -3.2114   35.9695 H   0  0  0  0  0  0  0  0  0  0  0  0
   15.6080   -2.9469   37.6909 H   0  0  0  0  0  0  0  0  0  0  0  0
   16.5670   -5.1100   35.7575 H   0  0  0  0  0  0  0  0  0  0  0  0
   15.0583   -5.2688   36.7089 H   0  0  0  0  0  0  0  0  0  0  0  0
   16.2433    3.7791   34.0723 H   0  0  0  0  0  0  0  0  0  0  0  0
   16.8805    3.3923   35.6856 H   0  0  0  0  0  0  0  0  0  0  0  0
   15.1156    3.3581   35.3813 H   0  0  0  0  0  0  0  0  0  0  0  0
   15.8934    1.1882   36.5494 H   0  0  0  0  0  0  0  0  0  0  0  0
   17.6292   -1.2339   38.2244 H   0  0  0  0  0  0  0  0  0  0  0  0
   12.8713   -1.1308   34.9937 H   0  0  0  0  0  0  0  0  0  0  0  0
   14.5332   -2.7042   33.7573 H   0  0  0  0  0  0  0  0  0  0  0  0
   16.9554   -6.1371   37.6922 H   0  0  0  0  0  0  0  0  0  0  0  0
  1 13  1  0  0  0  0
  1 10  1  0  0  0  0
  1  2  1  0  0  0  0
  1 16  1  6  0  0  0
  2  9  1  0  0  0  0
  2  3  1  0  0  0  0
  2 17  1  6  0  0  0
  3 11  1  0  0  0  0
  3  4  1  0  0  0  0
  3 18  1  1  0  0  0
  4 12  1  0  0  0  0
  4  5  1  0  0  0  0
  4 19  1  1  0  0  0
  5 13  1  0  0  0  0
  5  6  1  0  0  0  0
  5 20  1  1  0  0  0
  6 14  1  0  0  0  0
  6 21  1  0  0  0  0
  6 22  1  0  0  0  0
  7  9  1  0  0  0  0
  7 15  2  0  0  0  0
  7  8  1  0  0  0  0
  8 23  1  0  0  0  0
  8 24  1  0  0  0  0
  8 25  1  0  0  0  0
  9 26  1  0  0  0  0
 10 27  1  0  0  0  0
 11 28  1  0  0  0  0
 12 29  1  0  0  0  0
 14 30  1  0  0  0  0
M  END
$$$$
