A32
 OpenBabel04041915123D

 63 65  0  0  1  0  0  0  0  0999 V2000
   50.1904    2.1507   -1.6740 C   0  0  2  0  0  0  0  0  0  0  0  0
   50.5855    0.7599   -1.5727 O   0  0  0  0  0  0  0  0  0  0  0  0
   50.8958    3.0123   -0.5975 C   0  0  2  0  0  0  0  0  0  0  0  0
   52.3284    2.9806   -0.6905 O   0  0  0  0  0  0  0  0  0  0  0  0
   50.4396    2.5795    0.8014 C   0  0  1  0  0  0  0  0  0  0  0  0
   50.9858    3.4443    1.8107 O   0  0  0  0  0  0  0  0  0  0  0  0
   48.9090    2.6406    0.8913 C   0  0  1  0  0  0  0  0  0  0  0  0
   48.5025    4.0137    0.9145 O   0  0  0  0  0  0  0  0  0  0  0  0
   48.2564    1.8918   -0.2800 C   0  0  2  0  0  0  0  0  0  0  0  0
   48.7680    2.3073   -1.5674 O   0  0  0  0  0  0  0  0  0  0  0  0
   46.7318    2.0539   -0.3003 C   0  0  0  0  0  0  0  0  0  0  0  0
   46.1578    1.0960   -1.1989 O   0  0  0  0  0  0  0  0  0  0  0  0
   50.2149    0.0666   -2.6988 C   0  0  0  0  0  0  0  0  0  0  0  0
   51.0442    0.0883   -3.8365 C   0  0  0  0  0  0  0  0  0  0  0  0
   50.6326   -0.6393   -4.9590 C   0  0  0  0  0  0  0  0  0  0  0  0
   49.4707   -1.4136   -4.9440 C   0  0  0  0  0  0  0  0  0  0  0  0
   48.6427   -1.4068   -3.8172 C   0  0  0  0  0  0  0  0  0  0  0  0
   49.0455   -0.6805   -2.6852 C   0  0  0  0  0  0  0  0  0  0  0  0
   51.4321   -0.6530   -6.1900 N   0  0  0  0  0  0  0  0  0  0  0  0
   50.9725   -1.2684   -7.1651 O   0  0  0  0  0  0  0  0  0  0  0  0
   52.5227   -0.0530   -6.1849 O   0  0  0  0  0  0  0  0  0  0  0  0
   47.3769   -2.1568   -3.6925 C   0  0  0  0  0  0  0  0  0  0  0  0
   46.9783   -2.4871   -2.5800 O   0  0  0  0  0  0  0  0  0  0  0  0
   46.6081   -2.5446   -4.7564 N   0  0  0  0  0  0  0  0  0  0  0  0
   48.0956   -8.6706   -4.1699 O   0  0  0  0  0  0  0  0  0  0  0  0
   49.2506   -7.8752   -4.3758 C   0  0  0  0  0  0  0  0  0  0  0  0
   49.1520   -6.5448   -5.1422 C   0  0  0  0  0  0  0  0  0  0  0  0
   47.8735   -6.2814   -5.9342 N   0  3  0  0  0  0  0  0  0  0  0  0
   46.8733   -7.4285   -5.8689 C   0  0  0  0  0  0  0  0  0  0  0  0
   46.8482   -8.0884   -4.4971 C   0  0  0  0  0  0  0  0  0  0  0  0
   47.2343   -4.9541   -5.5941 C   0  0  0  0  0  0  0  0  0  0  0  0
   47.3240   -3.9009   -6.7047 C   0  0  0  0  0  0  0  0  0  0  0  0
   46.8105   -2.5252   -6.1849 C   0  0  0  0  0  0  0  0  0  0  0  0
   50.5121    2.5258   -2.6533 H   0  0  0  0  0  0  0  0  0  0  0  0
   50.6074    4.0586   -0.7490 H   0  0  0  0  0  0  0  0  0  0  0  0
   52.6377    2.0766   -0.5258 H   0  0  0  0  0  0  0  0  0  0  0  0
   50.8025    1.5701    1.0250 H   0  0  0  0  0  0  0  0  0  0  0  0
   51.9518    3.4767    1.6684 H   0  0  0  0  0  0  0  0  0  0  0  0
   48.5781    2.2079    1.8430 H   0  0  0  0  0  0  0  0  0  0  0  0
   49.0471    4.4270    1.6184 H   0  0  0  0  0  0  0  0  0  0  0  0
   48.4770    0.8252   -0.1739 H   0  0  0  0  0  0  0  0  0  0  0  0
   46.4228    3.0484   -0.6382 H   0  0  0  0  0  0  0  0  0  0  0  0
   46.3088    1.8616    0.6894 H   0  0  0  0  0  0  0  0  0  0  0  0
   46.4974    1.3193   -2.0834 H   0  0  0  0  0  0  0  0  0  0  0  0
   51.9593    0.6440   -3.8114 H   0  0  0  0  0  0  0  0  0  0  0  0
   49.2554   -2.0327   -5.7895 H   0  0  0  0  0  0  0  0  0  0  0  0
   48.4287   -0.7158   -1.7926 H   0  0  0  0  0  0  0  0  0  0  0  0
   45.7950   -3.0405   -4.4027 H   0  0  0  0  0  0  0  0  0  0  0  0
   49.7027   -7.6819   -3.3942 H   0  0  0  0  0  0  0  0  0  0  0  0
   49.9662   -8.5180   -4.8992 H   0  0  0  0  0  0  0  0  0  0  0  0
   49.3072   -5.7240   -4.4306 H   0  0  0  0  0  0  0  0  0  0  0  0
   49.9735   -6.4761   -5.8618 H   0  0  0  0  0  0  0  0  0  0  0  0
   47.1899   -8.1345   -6.6391 H   0  0  0  0  0  0  0  0  0  0  0  0
   45.8853   -7.0368   -6.1312 H   0  0  0  0  0  0  0  0  0  0  0  0
   46.5261   -7.4092   -3.7011 H   0  0  0  0  0  0  0  0  0  0  0  0
   46.1284   -8.9145   -4.5302 H   0  0  0  0  0  0  0  0  0  0  0  0
   46.1838   -5.1273   -5.3599 H   0  0  0  0  0  0  0  0  0  0  0  0
   47.7308   -4.6096   -4.6909 H   0  0  0  0  0  0  0  0  0  0  0  0
   48.3563   -3.7937   -7.0810 H   0  0  0  0  0  0  0  0  0  0  0  0
   46.7213   -4.1854   -7.5666 H   0  0  0  0  0  0  0  0  0  0  0  0
   47.4587   -1.7068   -6.4842 H   0  0  0  0  0  0  0  0  0  0  0  0
   45.8323   -2.2964   -6.6260 H   0  0  0  0  0  0  0  0  0  0  0  0
   48.1616   -6.2403   -6.9202 H   0  0  0  0  0  0  0  0  0  0  0  0
  1 10  1  0  0  0  0
  1  3  1  0  0  0  0
  1  2  1  0  0  0  0
  1 34  1  6  0  0  0
  2 13  1  0  0  0  0
  3  5  1  0  0  0  0
  3  4  1  0  0  0  0
  3 35  1  6  0  0  0
  4 36  1  0  0  0  0
  5  7  1  0  0  0  0
  5  6  1  0  0  0  0
  5 37  1  1  0  0  0
  6 38  1  0  0  0  0
  7  9  1  0  0  0  0
  7  8  1  0  0  0  0
  7 39  1  1  0  0  0
  8 40  1  0  0  0  0
  9 11  1  0  0  0  0
  9 10  1  0  0  0  0
  9 41  1  1  0  0  0
 11 12  1  0  0  0  0
 11 42  1  0  0  0  0
 11 43  1  0  0  0  0
 12 44  1  0  0  0  0
 13 18  2  0  0  0  0
 13 14  1  0  0  0  0
 14 15  2  0  0  0  0
 14 45  1  0  0  0  0
 15 19  1  0  0  0  0
 15 16  1  0  0  0  0
 16 17  2  0  0  0  0
 16 46  1  0  0  0  0
 17 22  1  0  0  0  0
 17 18  1  0  0  0  0
 18 47  1  0  0  0  0
 19 21  2  0  0  0  0
 19 20  2  0  0  0  0
 22 24  1  0  0  0  0
 22 23  2  0  0  0  0
 24 33  1  0  0  0  0
 24 48  1  0  0  0  0
 25 26  1  0  0  0  0
 25 30  1  0  0  0  0
 26 27  1  0  0  0  0
 26 49  1  0  0  0  0
 26 50  1  0  0  0  0
 27 28  1  0  0  0  0
 27 51  1  0  0  0  0
 27 52  1  0  0  0  0
 28 31  1  0  0  0  0
 28 29  1  0  0  0  0
 28 63  1  0  0  0  0
 29 30  1  0  0  0  0
 29 53  1  0  0  0  0
 29 54  1  0  0  0  0
 30 55  1  0  0  0  0
 30 56  1  0  0  0  0
 31 32  1  0  0  0  0
 31 57  1  0  0  0  0
 31 58  1  0  0  0  0
 32 33  1  0  0  0  0
 32 59  1  0  0  0  0
 32 60  1  0  0  0  0
 33 61  1  0  0  0  0
 33 62  1  0  0  0  0
M  CHG  1  28   1
M  END
$$$$
