A3D
 OpenBabel04041914203D

 72 76  0  0  1  0  0  0  0  0999 V2000
    6.4556   29.1322   17.9660 P   0  0  1  0  0  0  0  0  0  0  0  0
    5.3855   30.1832   17.7982 O   0  0  0  0  0  0  0  0  0  0  0  0
    6.1162   27.6800   17.6727 O   0  0  0  0  0  0  0  0  0  0  0  0
    7.6645   29.5179   16.9601 O   0  0  0  0  0  0  0  0  0  0  0  0
    8.5905   28.5005   16.6648 C   0  0  0  0  0  0  0  0  0  0  0  0
    9.5099   29.0865   15.5937 C   0  0  1  0  0  0  0  0  0  0  0  0
   10.5730   28.1678   15.2614 O   0  0  0  0  0  0  0  0  0  0  0  0
    8.7492   29.3839   14.2857 C   0  0  1  0  0  0  0  0  0  0  0  0
    9.4098   30.4630   13.5964 O   0  0  0  0  0  0  0  0  0  0  0  0
    8.9561   28.0925   13.5154 C   0  0  1  0  0  0  0  0  0  0  0  0
    8.7166   28.1589   12.1135 O   0  0  0  0  0  0  0  0  0  0  0  0
   10.4129   27.8187   13.8690 C   0  0  2  0  0  0  0  0  0  0  0  0
   10.7924   26.4411   13.7069 N   0  3  0  0  0  0  0  0  0  0  0  0
   10.1103   25.3675   14.2175 C   0  0  0  0  0  0  0  0  0  0  0  0
   10.7003   24.2228   13.9271 N   0  0  0  0  0  0  0  0  0  0  0  0
   11.8018   24.5888   13.1879 C   0  0  0  0  0  0  0  0  0  0  0  0
   12.8239   23.8251   12.6069 C   0  0  0  0  0  0  0  0  0  0  0  0
   12.8840   22.4527   12.7200 N   0  0  0  0  0  0  0  0  0  0  0  0
   13.7887   24.4605   11.9038 N   0  0  0  0  0  0  0  0  0  0  0  0
   13.7115   25.8063   11.7958 C   0  0  0  0  0  0  0  0  0  0  0  0
   12.7874   26.6446   12.3082 N   0  0  0  0  0  0  0  0  0  0  0  0
   11.8640   25.9622   13.0066 C   0  0  0  0  0  0  0  0  0  0  0  0
    7.2449   29.1962   19.3643 O   0  0  0  0  0  0  0  0  0  0  0  0
    7.6698   30.3925   20.3166 P   0  0  2  0  0  0  0  0  0  0  0  0
    6.6916   30.5634   21.4458 O   0  0  0  0  0  0  0  0  0  0  0  0
    8.2258   31.5837   19.5511 O   0  0  0  0  0  0  0  0  0  0  0  0
    8.9685   29.6743   21.0211 O   0  0  0  0  0  0  0  0  0  0  0  0
   10.2391   29.9691   20.4684 C   0  0  0  0  0  0  0  0  0  0  0  0
   11.3582   29.1672   21.1522 C   0  0  1  0  0  0  0  0  0  0  0  0
   12.0808   30.0477   22.0564 O   0  0  0  0  0  0  0  0  0  0  0  0
   10.8438   27.9935   21.9895 C   0  0  1  0  0  0  0  0  0  0  0  0
   11.8232   26.9420   22.1262 O   0  0  0  0  0  0  0  0  0  0  0  0
   10.6433   28.6159   23.3574 C   0  0  1  0  0  0  0  0  0  0  0  0
   10.6976   27.6313   24.4028 O   0  0  0  0  0  0  0  0  0  0  0  0
   11.8147   29.6089   23.3909 C   0  0  2  0  0  0  0  0  0  0  0  0
   11.6167   30.7492   24.3049 N   0  0  0  0  0  0  0  0  0  0  0  0
   12.6530   31.1356   25.1512 C   0  0  0  0  0  0  0  0  0  0  0  0
   12.5766   32.1677   26.0069 C   0  0  0  0  0  0  0  0  0  0  0  0
   13.6980   32.4943   26.9291 C   0  0  0  0  0  0  0  0  0  0  0  0
   13.5517   33.3285   27.8229 O   0  0  0  0  0  0  0  0  0  0  0  0
   15.0152   31.7807   26.7480 C   0  0  0  0  0  0  0  0  0  0  0  0
   11.3330   33.0165   26.0707 C   0  0  0  0  0  0  0  0  0  0  0  0
   10.2455   32.5402   25.1450 C   0  0  0  0  0  0  0  0  0  0  0  0
   10.4347   31.4866   24.3374 C   0  0  0  0  0  0  0  0  0  0  0  0
    8.0932   27.6133   16.2824 H   0  0  0  0  0  0  0  0  0  0  0  0
    9.1614   28.2141   17.5489 H   0  0  0  0  0  0  0  0  0  0  0  0
    9.9811   30.0005   15.9833 H   0  0  0  0  0  0  0  0  0  0  0  0
    7.6936   29.6515   14.4017 H   0  0  0  0  0  0  0  0  0  0  0  0
    9.3792   31.2078   14.2326 H   0  0  0  0  0  0  0  0  0  0  0  0
    8.2851   27.3297   13.9236 H   0  0  0  0  0  0  0  0  0  0  0  0
    9.3461   28.8043   11.7455 H   0  0  0  0  0  0  0  0  0  0  0  0
   11.0946   28.4466   13.2772 H   0  0  0  0  0  0  0  0  0  0  0  0
    9.1898   25.4806   14.7792 H   0  0  0  0  0  0  0  0  0  0  0  0
   13.7036   21.9900   12.3662 H   0  0  0  0  0  0  0  0  0  0  0  0
   12.2405   22.0076   13.3620 H   0  0  0  0  0  0  0  0  0  0  0  0
   14.5059   26.2743   11.2224 H   0  0  0  0  0  0  0  0  0  0  0  0
   10.4271   31.0414   20.5843 H   0  0  0  0  0  0  0  0  0  0  0  0
   10.2219   29.7147   19.4040 H   0  0  0  0  0  0  0  0  0  0  0  0
   12.0962   28.8555   20.4040 H   0  0  0  0  0  0  0  0  0  0  0  0
    9.9425   27.5299   21.5809 H   0  0  0  0  0  0  0  0  0  0  0  0
   11.3103   26.2103   22.5238 H   0  0  0  0  0  0  0  0  0  0  0  0
    9.6741   29.1095   23.4018 H   0  0  0  0  0  0  0  0  0  0  0  0
   11.5916   27.2497   24.3661 H   0  0  0  0  0  0  0  0  0  0  0  0
   12.7151   29.0637   23.7085 H   0  0  0  0  0  0  0  0  0  0  0  0
   13.5300   30.5057   25.0648 H   0  0  0  0  0  0  0  0  0  0  0  0
   15.7384   32.1504   27.4790 H   0  0  0  0  0  0  0  0  0  0  0  0
   15.4062   31.9815   25.7465 H   0  0  0  0  0  0  0  0  0  0  0  0
   14.8894   30.7057   26.9061 H   0  0  0  0  0  0  0  0  0  0  0  0
   11.5891   34.0455   25.7928 H   0  0  0  0  0  0  0  0  0  0  0  0
   10.9397   33.0182   27.0921 H   0  0  0  0  0  0  0  0  0  0  0  0
    9.2981   33.0689   25.1286 H   0  0  0  0  0  0  0  0  0  0  0  0
    9.6360   31.1648   23.6693 H   0  0  0  0  0  0  0  0  0  0  0  0
  1  2  2  6  0  0  0
  1  3  1  0  0  0  0
  1  4  1  0  0  0  0
  1 23  1  0  0  0  0
  4  5  1  0  0  0  0
  5  6  1  0  0  0  0
  5 45  1  0  0  0  0
  5 46  1  0  0  0  0
  6  7  1  0  0  0  0
  6  8  1  0  0  0  0
  6 47  1  1  0  0  0
  7 12  1  0  0  0  0
  8  9  1  0  0  0  0
  8 10  1  0  0  0  0
  8 48  1  1  0  0  0
  9 49  1  0  0  0  0
 10 11  1  0  0  0  0
 10 12  1  0  0  0  0
 10 50  1  1  0  0  0
 11 51  1  0  0  0  0
 12 13  1  0  0  0  0
 12 52  1  6  0  0  0
 13 14  2  0  0  0  0
 13 22  1  0  0  0  0
 14 15  1  0  0  0  0
 14 53  1  0  0  0  0
 15 16  1  0  0  0  0
 16 17  2  0  0  0  0
 16 22  1  0  0  0  0
 17 18  1  0  0  0  0
 17 19  1  0  0  0  0
 18 54  1  0  0  0  0
 18 55  1  0  0  0  0
 19 20  2  0  0  0  0
 20 21  1  0  0  0  0
 20 56  1  0  0  0  0
 21 22  2  0  0  0  0
 24 23  1  6  0  0  0
 24 25  2  0  0  0  0
 24 26  1  0  0  0  0
 24 27  1  0  0  0  0
 27 28  1  0  0  0  0
 28 29  1  0  0  0  0
 28 57  1  0  0  0  0
 28 58  1  0  0  0  0
 29 30  1  0  0  0  0
 29 31  1  0  0  0  0
 29 59  1  6  0  0  0
 30 35  1  0  0  0  0
 31 32  1  0  0  0  0
 31 33  1  0  0  0  0
 31 60  1  6  0  0  0
 32 61  1  0  0  0  0
 33 34  1  0  0  0  0
 33 35  1  0  0  0  0
 33 62  1  1  0  0  0
 34 63  1  0  0  0  0
 35 36  1  0  0  0  0
 35 64  1  1  0  0  0
 36 37  1  0  0  0  0
 36 44  1  0  0  0  0
 37 38  2  0  0  0  0
 37 65  1  0  0  0  0
 38 39  1  0  0  0  0
 38 42  1  0  0  0  0
 39 40  2  0  0  0  0
 39 41  1  0  0  0  0
 41 66  1  0  0  0  0
 41 67  1  0  0  0  0
 41 68  1  0  0  0  0
 42 43  1  0  0  0  0
 42 69  1  0  0  0  0
 42 70  1  0  0  0  0
 43 44  2  0  0  0  0
 43 71  1  0  0  0  0
 44 72  1  0  0  0  0
M  CHG  1  13   1
M  END
$$$$
