A3M
 OpenBabel04041915493D

 31 31  0  0  1  0  0  0  0  0999 V2000
   84.0939   77.1598   97.3774 C   0  0  0  0  0  0  0  0  0  0  0  0
   82.8121   76.4005   97.0528 C   0  0  0  0  0  0  0  0  0  0  0  0
   82.7181   75.3290   98.0360 N   0  0  0  0  0  0  0  0  0  0  0  0
   83.9996   75.1893   98.7150 C   0  0  0  0  0  0  0  0  0  0  0  0
   84.5634   76.6010   98.7161 C   0  0  0  0  0  0  0  0  0  0  0  0
   81.8220   74.2861   98.0221 C   0  0  0  0  0  0  0  0  0  0  0  0
   80.4236   74.4656   97.3640 C   0  0  2  0  0  0  0  0  0  0  0  0
   79.2600   74.2601   98.3726 C   0  0  0  0  0  0  0  0  0  0  0  0
   79.2650   75.3239   99.4757 C   0  0  0  0  0  0  0  0  0  0  0  0
   82.1149   73.1602   98.4326 O   0  0  0  0  0  0  0  0  0  0  0  0
   80.3212   73.3812   96.3136 N   0  3  0  0  0  0  0  0  0  0  0  0
   77.8709   74.2844   97.7036 C   0  0  0  0  0  0  0  0  0  0  0  0
   83.9362   78.2392   97.4073 H   0  0  0  0  0  0  0  0  0  0  0  0
   84.8590   76.9660   96.6044 H   0  0  0  0  0  0  0  0  0  0  0  0
   82.8787   75.9442   96.0610 H   0  0  0  0  0  0  0  0  0  0  0  0
   81.9215   77.0379   97.0901 H   0  0  0  0  0  0  0  0  0  0  0  0
   84.6246   74.5182   98.1176 H   0  0  0  0  0  0  0  0  0  0  0  0
   83.8759   74.7727   99.7177 H   0  0  0  0  0  0  0  0  0  0  0  0
   84.1226   77.1884   99.5298 H   0  0  0  0  0  0  0  0  0  0  0  0
   85.6507   76.6204   98.8330 H   0  0  0  0  0  0  0  0  0  0  0  0
   80.3333   75.4176   96.8337 H   0  0  0  0  0  0  0  0  0  0  0  0
   79.3740   73.2817   98.8595 H   0  0  0  0  0  0  0  0  0  0  0  0
   78.4426   75.1504  100.1805 H   0  0  0  0  0  0  0  0  0  0  0  0
   79.1398   76.3266   99.0593 H   0  0  0  0  0  0  0  0  0  0  0  0
   80.1952   75.3002  100.0514 H   0  0  0  0  0  0  0  0  0  0  0  0
   79.4078   73.3171   95.8582 H   0  0  0  0  0  0  0  0  0  0  0  0
   81.0396   73.4977   95.5887 H   0  0  0  0  0  0  0  0  0  0  0  0
   77.7421   73.4750   96.9811 H   0  0  0  0  0  0  0  0  0  0  0  0
   77.6985   75.2362   97.1888 H   0  0  0  0  0  0  0  0  0  0  0  0
   77.0782   74.1586   98.4497 H   0  0  0  0  0  0  0  0  0  0  0  0
   80.5277   72.4792   96.7748 H   0  0  0  0  0  0  0  0  0  0  0  0
  1  2  1  0  0  0  0
  1  5  1  0  0  0  0
  1 13  1  0  0  0  0
  1 14  1  0  0  0  0
  2  3  1  0  0  0  0
  2 15  1  0  0  0  0
  2 16  1  0  0  0  0
  3  4  1  0  0  0  0
  3  6  1  0  0  0  0
  4  5  1  0  0  0  0
  4 17  1  0  0  0  0
  4 18  1  0  0  0  0
  5 19  1  0  0  0  0
  5 20  1  0  0  0  0
  6  7  1  0  0  0  0
  6 10  2  0  0  0  0
  7  8  1  0  0  0  0
  7 11  1  0  0  0  0
  7 21  1  6  0  0  0
  8  9  1  0  0  0  0
  8 12  1  0  0  0  0
  8 22  1  0  0  0  0
  9 23  1  0  0  0  0
  9 24  1  0  0  0  0
  9 25  1  0  0  0  0
 11 26  1  0  0  0  0
 11 27  1  0  0  0  0
 11 31  1  0  0  0  0
 12 28  1  0  0  0  0
 12 29  1  0  0  0  0
 12 30  1  0  0  0  0
M  CHG  1  11   1
M  END
$$$$
