A3P
 OpenBabel04041914563D

 38 40  0  0  1  0  0  0  0  0999 V2000
   10.2073   17.7786   12.3421 P   0  0  0  0  0  0  0  0  0  0  0  0
   10.4769   16.3516   12.7284 O   0  0  0  0  0  0  0  0  0  0  0  0
    9.3685   17.9973   11.0955 O   0  0  0  0  0  0  0  0  0  0  0  0
    9.7229   18.6233   13.5327 O   0  0  0  0  0  0  0  0  0  0  0  0
   14.4166   14.6480    9.7341 P   0  0  0  0  0  0  0  0  0  0  0  0
   15.7366   13.9421   10.0233 O   0  0  0  0  0  0  0  0  0  0  0  0
   13.3255   13.7071    9.2554 O   0  0  0  0  0  0  0  0  0  0  0  0
   14.5823   15.9226    8.9110 O   0  0  0  0  0  0  0  0  0  0  0  0
   13.8934   15.1469   11.1966 O   0  0  0  0  0  0  0  0  0  0  0  0
   14.6189   16.0837   11.9584 C   0  0  0  0  0  0  0  0  0  0  0  0
   13.7678   17.3117   12.3582 C   0  0  1  0  0  0  0  0  0  0  0  0
   14.6932   18.4740   12.5124 O   0  0  0  0  0  0  0  0  0  0  0  0
   12.6940   17.7293   11.3387 C   0  0  1  0  0  0  0  0  0  0  0  0
   11.6630   18.4609   12.0094 O   0  0  0  0  0  0  0  0  0  0  0  0
   13.4903   18.7102   10.4839 C   0  0  1  0  0  0  0  0  0  0  0  0
   12.6851   19.5381    9.6374 O   0  0  0  0  0  0  0  0  0  0  0  0
   14.2619   19.4862   11.5619 C   0  0  2  0  0  0  0  0  0  0  0  0
   15.4171   20.2890   11.0691 N   0  3  0  0  0  0  0  0  0  0  0  0
   15.5790   20.8114    9.7939 C   0  0  0  0  0  0  0  0  0  0  0  0
   16.6858   21.5174    9.6420 N   0  0  0  0  0  0  0  0  0  0  0  0
   17.2983   21.4524   10.8686 C   0  0  0  0  0  0  0  0  0  0  0  0
   18.5255   22.0122   11.3232 C   0  0  0  0  0  0  0  0  0  0  0  0
   19.3431   22.7857   10.5306 N   0  0  0  0  0  0  0  0  0  0  0  0
   18.8836   21.8095   12.6203 N   0  0  0  0  0  0  0  0  0  0  0  0
   18.0342   21.0789   13.4007 C   0  0  0  0  0  0  0  0  0  0  0  0
   16.8586   20.5276   13.0732 N   0  0  0  0  0  0  0  0  0  0  0  0
   16.5301   20.7265   11.7812 C   0  0  0  0  0  0  0  0  0  0  0  0
   15.5467   16.3985   11.4678 H   0  0  0  0  0  0  0  0  0  0  0  0
   14.9247   15.5569   12.8721 H   0  0  0  0  0  0  0  0  0  0  0  0
   13.3122   17.1343   13.3439 H   0  0  0  0  0  0  0  0  0  0  0  0
   12.2813   16.9094   10.7527 H   0  0  0  0  0  0  0  0  0  0  0  0
   14.2043   18.1578    9.8643 H   0  0  0  0  0  0  0  0  0  0  0  0
   13.2603   20.0366    9.0589 H   0  0  0  0  0  0  0  0  0  0  0  0
   13.6046   20.1930   12.0926 H   0  0  0  0  0  0  0  0  0  0  0  0
   14.8918   20.6606    8.9733 H   0  0  0  0  0  0  0  0  0  0  0  0
   20.2299   23.1080   10.9194 H   0  0  0  0  0  0  0  0  0  0  0  0
   19.1031   22.8990    9.5453 H   0  0  0  0  0  0  0  0  0  0  0  0
   18.3644   20.9415   14.4248 H   0  0  0  0  0  0  0  0  0  0  0  0
  1  2  2  0  0  0  0
  1  3  1  0  0  0  0
  1  4  1  0  0  0  0
  1 14  1  0  0  0  0
  5  6  2  0  0  0  0
  5  7  1  0  0  0  0
  5  8  1  0  0  0  0
  5  9  1  0  0  0  0
  9 10  1  0  0  0  0
 10 11  1  0  0  0  0
 10 28  1  0  0  0  0
 10 29  1  0  0  0  0
 11 12  1  0  0  0  0
 11 13  1  0  0  0  0
 11 30  1  1  0  0  0
 12 17  1  0  0  0  0
 13 14  1  0  0  0  0
 13 15  1  0  0  0  0
 13 31  1  6  0  0  0
 15 16  1  0  0  0  0
 15 17  1  0  0  0  0
 15 32  1  6  0  0  0
 16 33  1  0  0  0  0
 17 18  1  0  0  0  0
 17 34  1  1  0  0  0
 18 19  2  0  0  0  0
 18 27  1  0  0  0  0
 19 20  1  0  0  0  0
 19 35  1  0  0  0  0
 20 21  1  0  0  0  0
 21 22  2  0  0  0  0
 21 27  1  0  0  0  0
 22 23  1  0  0  0  0
 22 24  1  0  0  0  0
 23 36  1  0  0  0  0
 23 37  1  0  0  0  0
 24 25  2  0  0  0  0
 25 26  1  0  0  0  0
 25 38  1  0  0  0  0
 26 27  2  0  0  0  0
M  CHG  1  18   1
M  END
$$$$
