A3P
 OpenBabel04041916013D

 38 40  0  0  1  0  0  0  0  0999 V2000
   41.2473    6.2543   14.4648 P   0  0  0  0  0  0  0  0  0  0  0  0
   40.2642    6.5469   13.3611 O   0  0  0  0  0  0  0  0  0  0  0  0
   42.0970    4.9967   14.3040 O   0  0  0  0  0  0  0  0  0  0  0  0
   42.0709    7.4853   14.8830 O   0  0  0  0  0  0  0  0  0  0  0  0
   36.3958    3.1889   13.2160 P   0  0  0  0  0  0  0  0  0  0  0  0
   34.8829    3.4332   13.3307 O   0  0  0  0  0  0  0  0  0  0  0  0
   37.0387    3.9085   12.0531 O   0  0  0  0  0  0  0  0  0  0  0  0
   36.7708    1.7099   13.3351 O   0  0  0  0  0  0  0  0  0  0  0  0
   36.9954    3.8417   14.5965 O   0  0  0  0  0  0  0  0  0  0  0  0
   36.8474    5.2348   14.8258 C   0  0  0  0  0  0  0  0  0  0  0  0
   37.9308    5.7255   15.7899 C   0  0  1  0  0  0  0  0  0  0  0  0
   37.4438    5.5644   17.1677 O   0  0  0  0  0  0  0  0  0  0  0  0
   39.2732    4.9969   15.6714 C   0  0  1  0  0  0  0  0  0  0  0  0
   40.3312    5.9543   15.8054 O   0  0  0  0  0  0  0  0  0  0  0  0
   39.2626    4.0757   16.8894 C   0  0  1  0  0  0  0  0  0  0  0  0
   40.5525    3.7374   17.4318 O   0  0  0  0  0  0  0  0  0  0  0  0
   38.4784    4.8973   17.9068 C   0  0  2  0  0  0  0  0  0  0  0  0
   37.8661    4.1558   19.0158 N   0  3  0  0  0  0  0  0  0  0  0  0
   38.1193    2.8618   19.4213 C   0  0  0  0  0  0  0  0  0  0  0  0
   37.4390    2.5188   20.5024 N   0  0  0  0  0  0  0  0  0  0  0  0
   36.6913    3.6287   20.8037 C   0  0  0  0  0  0  0  0  0  0  0  0
   35.7831    3.9098   21.8315 C   0  0  0  0  0  0  0  0  0  0  0  0
   35.4639    3.0036   22.8303 N   0  0  0  0  0  0  0  0  0  0  0  0
   35.1934    5.1270   21.8947 N   0  0  0  0  0  0  0  0  0  0  0  0
   35.5159    6.0166   20.9229 C   0  0  0  0  0  0  0  0  0  0  0  0
   36.3840    5.8752   19.9152 N   0  0  0  0  0  0  0  0  0  0  0  0
   36.9497    4.6520   19.8860 C   0  0  0  0  0  0  0  0  0  0  0  0
   35.8610    5.4165   15.2724 H   0  0  0  0  0  0  0  0  0  0  0  0
   36.9285    5.8054   13.8959 H   0  0  0  0  0  0  0  0  0  0  0  0
   38.0666    6.8021   15.6373 H   0  0  0  0  0  0  0  0  0  0  0  0
   39.3650    4.4378   14.7420 H   0  0  0  0  0  0  0  0  0  0  0  0
   38.7324    3.1400   16.6669 H   0  0  0  0  0  0  0  0  0  0  0  0
   41.0541    3.3947   16.6562 H   0  0  0  0  0  0  0  0  0  0  0  0
   39.1345    5.6552   18.3644 H   0  0  0  0  0  0  0  0  0  0  0  0
   38.8073    2.2163   18.8967 H   0  0  0  0  0  0  0  0  0  0  0  0
   34.7929    3.2844   23.5256 H   0  0  0  0  0  0  0  0  0  0  0  0
   35.8920    2.0949   22.7974 H   0  0  0  0  0  0  0  0  0  0  0  0
   35.0274    6.9758   20.9878 H   0  0  0  0  0  0  0  0  0  0  0  0
  1  2  2  0  0  0  0
  1  3  1  0  0  0  0
  1  4  1  0  0  0  0
  1 14  1  0  0  0  0
  5  6  2  0  0  0  0
  5  7  1  0  0  0  0
  5  8  1  0  0  0  0
  5  9  1  0  0  0  0
  9 10  1  0  0  0  0
 10 11  1  0  0  0  0
 10 28  1  0  0  0  0
 10 29  1  0  0  0  0
 11 12  1  0  0  0  0
 11 13  1  0  0  0  0
 11 30  1  6  0  0  0
 12 17  1  0  0  0  0
 13 14  1  0  0  0  0
 13 15  1  0  0  0  0
 13 31  1  6  0  0  0
 15 16  1  0  0  0  0
 15 17  1  0  0  0  0
 15 32  1  6  0  0  0
 16 33  1  0  0  0  0
 17 18  1  0  0  0  0
 17 34  1  1  0  0  0
 18 19  2  0  0  0  0
 18 27  1  0  0  0  0
 19 20  1  0  0  0  0
 19 35  1  0  0  0  0
 20 21  1  0  0  0  0
 21 22  2  0  0  0  0
 21 27  1  0  0  0  0
 22 23  1  0  0  0  0
 22 24  1  0  0  0  0
 23 36  1  0  0  0  0
 23 37  1  0  0  0  0
 24 25  2  0  0  0  0
 25 26  1  0  0  0  0
 25 38  1  0  0  0  0
 26 27  2  0  0  0  0
M  CHG  1  18   1
M  END
$$$$
