A77
 OpenBabel04041915003D

116119  0  0  1  0  0  0  0  0999 V2000
    3.4919    3.3441   10.7538 C   0  0  0  0  0  0  0  0  0  0  0  0
    3.3369    4.0329   11.7883 O   0  0  0  0  0  0  0  0  0  0  0  0
    3.9838    3.8317    9.5734 N   0  0  0  0  0  0  0  0  0  0  0  0
    4.1896    3.0215    8.3878 C   0  0  0  0  0  0  0  0  0  0  0  0
    4.3636    5.2428    9.5273 C   0  0  0  0  0  0  0  0  0  0  0  0
    5.8532    5.4928    9.5690 C   0  0  0  0  0  0  0  0  0  0  0  0
    6.5966    5.5598    8.3932 C   0  0  0  0  0  0  0  0  0  0  0  0
    6.4077    5.6863   10.7964 N   0  0  0  0  0  0  0  0  0  0  0  0
    7.9547    5.8619    8.4871 C   0  0  0  0  0  0  0  0  0  0  0  0
    7.7185    5.9686   10.8571 C   0  0  0  0  0  0  0  0  0  0  0  0
    8.5223    6.0758    9.7411 C   0  0  0  0  0  0  0  0  0  0  0  0
    3.1660    2.0243   10.7553 N   0  0  0  0  0  0  0  0  0  0  0  0
    2.7699    1.3065   11.9651 C   0  0  2  0  0  0  0  0  0  0  0  0
    3.9260    0.3671   12.3646 C   0  0  0  0  0  0  0  0  0  0  0  0
    4.0290   -0.7871   11.9535 O   0  0  0  0  0  0  0  0  0  0  0  0
    1.4735    0.5197   11.7277 C   0  0  0  0  0  0  0  0  0  0  0  0
    1.0449   -0.2588   12.9777 C   0  0  0  0  0  0  0  0  0  0  0  0
    0.3412    1.4506   11.2974 C   0  0  0  0  0  0  0  0  0  0  0  0
    4.8565    0.9387   13.1942 N   0  0  0  0  0  0  0  0  0  0  0  0
    6.1139    0.3030   13.5548 C   0  0  1  0  0  0  0  0  0  0  0  0
    7.2737    1.2130   13.0876 C   0  0  0  0  0  0  0  0  0  0  0  0
    7.5759    1.1273   11.6261 C   0  0  0  0  0  0  0  0  0  0  0  0
    7.1866    2.1460   10.7546 C   0  0  0  0  0  0  0  0  0  0  0  0
    7.4608    2.0411    9.3947 C   0  0  0  0  0  0  0  0  0  0  0  0
    8.1326    0.9270    8.8956 C   0  0  0  0  0  0  0  0  0  0  0  0
    8.5354   -0.0801    9.7770 C   0  0  0  0  0  0  0  0  0  0  0  0
    8.2547    0.0194   11.1446 C   0  0  0  0  0  0  0  0  0  0  0  0
    6.2432    0.1713   15.0794 C   0  0  2  0  0  0  0  0  0  0  0  0
    7.4718   -0.4951   15.3592 O   0  0  0  0  0  0  0  0  0  0  0  0
    5.1353   -0.1887   17.2192 O   0  0  0  0  0  0  0  0  0  0  0  0
    5.0132   -0.4339   15.8017 C   0  0  2  0  0  0  0  0  0  0  0  0
    5.7701   -2.7777   16.2157 N   0  0  0  0  0  0  0  0  0  0  0  0
    4.7477   -1.9471   15.5777 C   0  0  1  0  0  0  0  0  0  0  0  0
    3.3516   -2.3357   16.1252 C   0  0  0  0  0  0  0  0  0  0  0  0
    3.0649   -3.8252   16.0877 C   0  0  0  0  0  0  0  0  0  0  0  0
    3.2445   -4.6126   17.2310 C   0  0  0  0  0  0  0  0  0  0  0  0
    3.0354   -5.9927   17.1722 C   0  0  0  0  0  0  0  0  0  0  0  0
    2.6363   -6.6073   15.9870 C   0  0  0  0  0  0  0  0  0  0  0  0
    2.4423   -5.8306   14.8487 C   0  0  0  0  0  0  0  0  0  0  0  0
    2.6564   -4.4485   14.8998 C   0  0  0  0  0  0  0  0  0  0  0  0
    6.8995   -5.9067   16.6703 N   0  0  0  0  0  0  0  0  0  0  0  0
    7.4301   -4.5751   16.4132 C   0  0  2  0  0  0  0  0  0  0  0  0
    6.4487   -3.7609   15.5547 C   0  0  0  0  0  0  0  0  0  0  0  0
    6.2993   -3.9971   14.3525 O   0  0  0  0  0  0  0  0  0  0  0  0
    8.8053   -4.6581   15.7274 C   0  0  0  0  0  0  0  0  0  0  0  0
    9.3627   -3.2615   15.4630 C   0  0  0  0  0  0  0  0  0  0  0  0
    9.8112   -5.4201   16.5855 C   0  0  0  0  0  0  0  0  0  0  0  0
    6.7696   -6.3977   17.9262 C   0  0  0  0  0  0  0  0  0  0  0  0
    7.1458   -5.7606   18.9101 O   0  0  0  0  0  0  0  0  0  0  0  0
    6.2278   -7.6661   18.0104 N   0  0  0  0  0  0  0  0  0  0  0  0
    5.7857   -8.4048   16.8468 C   0  0  0  0  0  0  0  0  0  0  0  0
    5.9931   -8.2468   19.3344 C   0  0  0  0  0  0  0  0  0  0  0  0
    4.6463   -7.8741   19.9127 C   0  0  0  0  0  0  0  0  0  0  0  0
    3.5579   -8.7346   19.7762 C   0  0  0  0  0  0  0  0  0  0  0  0
    4.5429   -6.6618   20.5178 N   0  0  0  0  0  0  0  0  0  0  0  0
    2.3216   -8.3431   20.2848 C   0  0  0  0  0  0  0  0  0  0  0  0
    3.3314   -6.3000   20.9943 C   0  0  0  0  0  0  0  0  0  0  0  0
    2.2120   -7.1017   20.9010 C   0  0  0  0  0  0  0  0  0  0  0  0
    4.6000    3.6282    7.5842 H   0  0  0  0  0  0  0  0  0  0  0  0
    3.2292    2.6042    8.0720 H   0  0  0  0  0  0  0  0  0  0  0  0
    4.8706    2.2007    8.6198 H   0  0  0  0  0  0  0  0  0  0  0  0
    3.9090    5.7793   10.3670 H   0  0  0  0  0  0  0  0  0  0  0  0
    3.9594    5.6728    8.6047 H   0  0  0  0  0  0  0  0  0  0  0  0
    6.1354    5.3820    7.4292 H   0  0  0  0  0  0  0  0  0  0  0  0
    8.5619    5.9339    7.5955 H   0  0  0  0  0  0  0  0  0  0  0  0
    8.1258    6.1172   11.8516 H   0  0  0  0  0  0  0  0  0  0  0  0
    9.5751    6.3193    9.8512 H   0  0  0  0  0  0  0  0  0  0  0  0
    3.1872    1.5255    9.8829 H   0  0  0  0  0  0  0  0  0  0  0  0
    2.6148    2.0237   12.7791 H   0  0  0  0  0  0  0  0  0  0  0  0
    1.6409   -0.2027   10.9256 H   0  0  0  0  0  0  0  0  0  0  0  0
    0.1090   -0.7978   12.7889 H   0  0  0  0  0  0  0  0  0  0  0  0
    0.8923    0.4138   13.8293 H   0  0  0  0  0  0  0  0  0  0  0  0
    1.8060   -0.9960   13.2525 H   0  0  0  0  0  0  0  0  0  0  0  0
    0.6308    2.0172   10.4064 H   0  0  0  0  0  0  0  0  0  0  0  0
    0.0915    2.1603   12.0941 H   0  0  0  0  0  0  0  0  0  0  0  0
   -0.5549    0.8701   11.0525 H   0  0  0  0  0  0  0  0  0  0  0  0
    4.6615    1.8722   13.5483 H   0  0  0  0  0  0  0  0  0  0  0  0
    6.2131   -0.6898   13.0845 H   0  0  0  0  0  0  0  0  0  0  0  0
    8.1956    0.9663   13.6283 H   0  0  0  0  0  0  0  0  0  0  0  0
    7.0179    2.2540   13.3282 H   0  0  0  0  0  0  0  0  0  0  0  0
    6.6662    3.0204   11.1419 H   0  0  0  0  0  0  0  0  0  0  0  0
    7.1441    2.8260    8.7175 H   0  0  0  0  0  0  0  0  0  0  0  0
    8.3401    0.8429    7.8394 H   0  0  0  0  0  0  0  0  0  0  0  0
    9.0659   -0.9512    9.3960 H   0  0  0  0  0  0  0  0  0  0  0  0
    8.5655   -0.7740   11.8196 H   0  0  0  0  0  0  0  0  0  0  0  0
    6.3513    1.1906   15.4749 H   0  0  0  0  0  0  0  0  0  0  0  0
    7.5451   -0.5940   16.3202 H   0  0  0  0  0  0  0  0  0  0  0  0
    5.2964    0.7675   17.3525 H   0  0  0  0  0  0  0  0  0  0  0  0
    4.1278    0.1168   15.4601 H   0  0  0  0  0  0  0  0  0  0  0  0
    5.9364   -2.6655   17.2078 H   0  0  0  0  0  0  0  0  0  0  0  0
    4.7518   -2.1179   14.5009 H   0  0  0  0  0  0  0  0  0  0  0  0
    2.5835   -1.8175   15.5344 H   0  0  0  0  0  0  0  0  0  0  0  0
    3.2547   -1.9870   17.1633 H   0  0  0  0  0  0  0  0  0  0  0  0
    3.5587   -4.1589   18.1701 H   0  0  0  0  0  0  0  0  0  0  0  0
    3.1921   -6.5927   18.0589 H   0  0  0  0  0  0  0  0  0  0  0  0
    2.4908   -7.6854   15.9493 H   0  0  0  0  0  0  0  0  0  0  0  0
    2.1221   -6.2987   13.9204 H   0  0  0  0  0  0  0  0  0  0  0  0
    2.5064   -3.8534   14.0030 H   0  0  0  0  0  0  0  0  0  0  0  0
    6.6514   -6.4845   15.8898 H   0  0  0  0  0  0  0  0  0  0  0  0
    7.5453   -4.0601   17.3712 H   0  0  0  0  0  0  0  0  0  0  0  0
    8.7022   -5.1846   14.7703 H   0  0  0  0  0  0  0  0  0  0  0  0
   10.3473   -3.3256   14.9884 H   0  0  0  0  0  0  0  0  0  0  0  0
    9.4638   -2.7038   16.4013 H   0  0  0  0  0  0  0  0  0  0  0  0
    8.7007   -2.7053   14.7957 H   0  0  0  0  0  0  0  0  0  0  0  0
    9.4532   -6.4322   16.7944 H   0  0  0  0  0  0  0  0  0  0  0  0
    9.9732   -4.9014   17.5373 H   0  0  0  0  0  0  0  0  0  0  0  0
   10.7715   -5.4981   16.0635 H   0  0  0  0  0  0  0  0  0  0  0  0
    5.3834   -9.3695   17.1439 H   0  0  0  0  0  0  0  0  0  0  0  0
    6.6406   -8.5556   16.1785 H   0  0  0  0  0  0  0  0  0  0  0  0
    5.0228   -7.8361   16.3126 H   0  0  0  0  0  0  0  0  0  0  0  0
    6.7737   -7.9250   20.0314 H   0  0  0  0  0  0  0  0  0  0  0  0
    6.0578   -9.3390   19.2485 H   0  0  0  0  0  0  0  0  0  0  0  0
    3.6661   -9.6930   19.2776 H   0  0  0  0  0  0  0  0  0  0  0  0
    1.4561   -8.9935   20.1996 H   0  0  0  0  0  0  0  0  0  0  0  0
    3.2810   -5.3217   21.4517 H   0  0  0  0  0  0  0  0  0  0  0  0
    1.2660   -6.7589   21.3073 H   0  0  0  0  0  0  0  0  0  0  0  0
  1  2  2  0  0  0  0
  1  3  1  0  0  0  0
  1 12  1  0  0  0  0
  3  4  1  0  0  0  0
  3  5  1  0  0  0  0
  4 59  1  0  0  0  0
  4 60  1  0  0  0  0
  4 61  1  0  0  0  0
  5  6  1  0  0  0  0
  5 62  1  0  0  0  0
  5 63  1  0  0  0  0
  6  7  2  0  0  0  0
  6  8  1  0  0  0  0
  7  9  1  0  0  0  0
  7 64  1  0  0  0  0
  8 10  2  0  0  0  0
  9 11  2  0  0  0  0
  9 65  1  0  0  0  0
 10 11  1  0  0  0  0
 10 66  1  0  0  0  0
 11 67  1  0  0  0  0
 12 13  1  0  0  0  0
 12 68  1  0  0  0  0
 13 14  1  0  0  0  0
 13 16  1  0  0  0  0
 13 69  1  1  0  0  0
 14 15  2  0  0  0  0
 14 19  1  0  0  0  0
 16 17  1  0  0  0  0
 16 18  1  0  0  0  0
 16 70  1  0  0  0  0
 17 71  1  0  0  0  0
 17 72  1  0  0  0  0
 17 73  1  0  0  0  0
 18 74  1  0  0  0  0
 18 75  1  0  0  0  0
 18 76  1  0  0  0  0
 19 20  1  0  0  0  0
 19 77  1  0  0  0  0
 20 21  1  0  0  0  0
 20 28  1  0  0  0  0
 20 78  1  6  0  0  0
 21 22  1  0  0  0  0
 21 79  1  0  0  0  0
 21 80  1  0  0  0  0
 22 23  2  0  0  0  0
 22 27  1  0  0  0  0
 23 24  1  0  0  0  0
 23 81  1  0  0  0  0
 24 25  2  0  0  0  0
 24 82  1  0  0  0  0
 25 26  1  0  0  0  0
 25 83  1  0  0  0  0
 26 27  2  0  0  0  0
 26 84  1  0  0  0  0
 27 85  1  0  0  0  0
 28 29  1  0  0  0  0
 28 31  1  0  0  0  0
 28 86  1  1  0  0  0
 29 87  1  0  0  0  0
 30 31  1  0  0  0  0
 30 88  1  0  0  0  0
 31 33  1  0  0  0  0
 31 89  1  6  0  0  0
 32 43  1  0  0  0  0
 32 33  1  0  0  0  0
 32 90  1  0  0  0  0
 33 34  1  0  0  0  0
 33 91  1  6  0  0  0
 34 35  1  0  0  0  0
 34 92  1  0  0  0  0
 34 93  1  0  0  0  0
 35 36  2  0  0  0  0
 35 40  1  0  0  0  0
 36 37  1  0  0  0  0
 36 94  1  0  0  0  0
 37 38  2  0  0  0  0
 37 95  1  0  0  0  0
 38 39  1  0  0  0  0
 38 96  1  0  0  0  0
 39 40  2  0  0  0  0
 39 97  1  0  0  0  0
 40 98  1  0  0  0  0
 41 42  1  0  0  0  0
 41 48  1  0  0  0  0
 41 99  1  0  0  0  0
 42 43  1  0  0  0  0
 42 45  1  0  0  0  0
 42100  1  1  0  0  0
 43 44  2  0  0  0  0
 45 46  1  0  0  0  0
 45 47  1  0  0  0  0
 45101  1  0  0  0  0
 46102  1  0  0  0  0
 46103  1  0  0  0  0
 46104  1  0  0  0  0
 47105  1  0  0  0  0
 47106  1  0  0  0  0
 47107  1  0  0  0  0
 48 49  2  0  0  0  0
 48 50  1  0  0  0  0
 50 51  1  0  0  0  0
 50 52  1  0  0  0  0
 51108  1  0  0  0  0
 51109  1  0  0  0  0
 51110  1  0  0  0  0
 52 53  1  0  0  0  0
 52111  1  0  0  0  0
 52112  1  0  0  0  0
 53 54  2  0  0  0  0
 53 55  1  0  0  0  0
 54 56  1  0  0  0  0
 54113  1  0  0  0  0
 55 57  2  0  0  0  0
 56 58  2  0  0  0  0
 56114  1  0  0  0  0
 57 58  1  0  0  0  0
 57115  1  0  0  0  0
 58116  1  0  0  0  0
M  END
$$$$
