A77
 OpenBabel04041915013D

116119  0  0  1  0  0  0  0  0999 V2000
    3.5133    3.4866   10.9273 C   0  0  0  0  0  0  0  0  0  0  0  0
    3.4032    4.1981   11.9212 O   0  0  0  0  0  0  0  0  0  0  0  0
    3.9181    3.9368    9.6855 N   0  0  0  0  0  0  0  0  0  0  0  0
    4.2284    3.0733    8.5574 C   0  0  0  0  0  0  0  0  0  0  0  0
    4.2333    5.3493    9.5429 C   0  0  0  0  0  0  0  0  0  0  0  0
    5.7161    5.6109    9.5910 C   0  0  0  0  0  0  0  0  0  0  0  0
    6.4676    5.6429    8.4163 C   0  0  0  0  0  0  0  0  0  0  0  0
    6.2690    5.7627   10.8177 N   0  0  0  0  0  0  0  0  0  0  0  0
    7.8253    5.8837    8.5084 C   0  0  0  0  0  0  0  0  0  0  0  0
    7.5899    5.9817   10.8753 C   0  0  0  0  0  0  0  0  0  0  0  0
    8.4055    6.0578    9.7657 C   0  0  0  0  0  0  0  0  0  0  0  0
    3.1811    2.1666   10.9645 N   0  0  0  0  0  0  0  0  0  0  0  0
    2.7258    1.4888   12.1679 C   0  0  2  0  0  0  0  0  0  0  0  0
    3.8640    0.5432   12.5453 C   0  0  0  0  0  0  0  0  0  0  0  0
    3.9154   -0.6340   12.1590 O   0  0  0  0  0  0  0  0  0  0  0  0
    1.4282    0.7260   11.8835 C   0  0  0  0  0  0  0  0  0  0  0  0
    0.9363   -0.0402   13.1138 C   0  0  0  0  0  0  0  0  0  0  0  0
    0.3427    1.6895   11.4009 C   0  0  0  0  0  0  0  0  0  0  0  0
    4.8424    1.1476   13.2816 N   0  0  0  0  0  0  0  0  0  0  0  0
    6.0473    0.4377   13.6840 C   0  0  1  0  0  0  0  0  0  0  0  0
    7.2913    1.2776   13.3420 C   0  0  0  0  0  0  0  0  0  0  0  0
    7.6379    1.2193   11.8961 C   0  0  0  0  0  0  0  0  0  0  0  0
    7.2393    2.2504   11.0477 C   0  0  0  0  0  0  0  0  0  0  0  0
    7.5431    2.1779    9.6990 C   0  0  0  0  0  0  0  0  0  0  0  0
    8.1904    1.0583    9.1856 C   0  0  0  0  0  0  0  0  0  0  0  0
    8.5845    0.0263   10.0348 C   0  0  0  0  0  0  0  0  0  0  0  0
    8.3081    0.1063   11.3883 C   0  0  0  0  0  0  0  0  0  0  0  0
    6.0649    0.2914   15.1982 C   0  0  2  0  0  0  0  0  0  0  0  0
    7.2872   -0.3341   15.6106 O   0  0  0  0  0  0  0  0  0  0  0  0
    5.0847   -0.1934   17.2973 O   0  0  0  0  0  0  0  0  0  0  0  0
    4.8598   -0.3736   15.8721 C   0  0  2  0  0  0  0  0  0  0  0  0
    5.7285   -2.6342   16.2899 N   0  0  0  0  0  0  0  0  0  0  0  0
    4.6559   -1.8844   15.6361 C   0  0  1  0  0  0  0  0  0  0  0  0
    3.2819   -2.2568   16.2416 C   0  0  0  0  0  0  0  0  0  0  0  0
    2.9220   -3.7156   16.1798 C   0  0  0  0  0  0  0  0  0  0  0  0
    2.9853   -4.4964   17.3363 C   0  0  0  0  0  0  0  0  0  0  0  0
    2.6516   -5.8441   17.2743 C   0  0  0  0  0  0  0  0  0  0  0  0
    2.2671   -6.4392   16.0799 C   0  0  0  0  0  0  0  0  0  0  0  0
    2.2081   -5.6690   14.9250 C   0  0  0  0  0  0  0  0  0  0  0  0
    2.5294   -4.3115   14.9770 C   0  0  0  0  0  0  0  0  0  0  0  0
    6.7828   -5.7080   16.7460 N   0  0  0  0  0  0  0  0  0  0  0  0
    7.4009   -4.4111   16.5342 C   0  0  2  0  0  0  0  0  0  0  0  0
    6.3932   -3.6595   15.6590 C   0  0  0  0  0  0  0  0  0  0  0  0
    6.1548   -4.0068   14.5047 O   0  0  0  0  0  0  0  0  0  0  0  0
    8.7365   -4.6042   15.8022 C   0  0  0  0  0  0  0  0  0  0  0  0
    9.3619   -3.2554   15.4527 C   0  0  0  0  0  0  0  0  0  0  0  0
    9.6984   -5.4378   16.6535 C   0  0  0  0  0  0  0  0  0  0  0  0
    6.6084   -6.2147   17.9978 C   0  0  0  0  0  0  0  0  0  0  0  0
    7.0507   -5.6385   18.9896 O   0  0  0  0  0  0  0  0  0  0  0  0
    5.9330   -7.4100   18.0543 N   0  0  0  0  0  0  0  0  0  0  0  0
    5.3558   -8.0391   16.8843 C   0  0  0  0  0  0  0  0  0  0  0  0
    5.6883   -8.0011   19.3699 C   0  0  0  0  0  0  0  0  0  0  0  0
    4.2570   -7.8549   19.8437 C   0  0  0  0  0  0  0  0  0  0  0  0
    3.3488   -8.8835   19.5892 C   0  0  0  0  0  0  0  0  0  0  0  0
    3.8908   -6.7035   20.4685 N   0  0  0  0  0  0  0  0  0  0  0  0
    2.0173   -8.7154   19.9472 C   0  0  0  0  0  0  0  0  0  0  0  0
    2.5867   -6.5638   20.8027 C   0  0  0  0  0  0  0  0  0  0  0  0
    1.6237   -7.5291   20.5542 C   0  0  0  0  0  0  0  0  0  0  0  0
    4.6041    3.6534    7.7123 H   0  0  0  0  0  0  0  0  0  0  0  0
    3.3206    2.5567    8.2468 H   0  0  0  0  0  0  0  0  0  0  0  0
    4.9782    2.3351    8.8509 H   0  0  0  0  0  0  0  0  0  0  0  0
    3.7521    5.9338   10.3345 H   0  0  0  0  0  0  0  0  0  0  0  0
    3.8103    5.6967    8.5939 H   0  0  0  0  0  0  0  0  0  0  0  0
    6.0066    5.4780    7.4480 H   0  0  0  0  0  0  0  0  0  0  0  0
    8.4466    5.9148    7.6132 H   0  0  0  0  0  0  0  0  0  0  0  0
    7.9906    6.0954   11.8823 H   0  0  0  0  0  0  0  0  0  0  0  0
    9.4667    6.2455    9.8705 H   0  0  0  0  0  0  0  0  0  0  0  0
    3.2562    1.6080   10.1320 H   0  0  0  0  0  0  0  0  0  0  0  0
    2.5802    2.2082   12.9838 H   0  0  0  0  0  0  0  0  0  0  0  0
    1.6139   -0.0020   11.0834 H   0  0  0  0  0  0  0  0  0  0  0  0
   -0.0023   -0.5549   12.8885 H   0  0  0  0  0  0  0  0  0  0  0  0
    0.7662    0.6279   13.9648 H   0  0  0  0  0  0  0  0  0  0  0  0
    1.6569   -0.8032   13.4252 H   0  0  0  0  0  0  0  0  0  0  0  0
    0.6797    2.2587   10.5280 H   0  0  0  0  0  0  0  0  0  0  0  0
    0.0716    2.4036   12.1850 H   0  0  0  0  0  0  0  0  0  0  0  0
   -0.5495    1.1348   11.1047 H   0  0  0  0  0  0  0  0  0  0  0  0
    4.7322    2.1245   13.5231 H   0  0  0  0  0  0  0  0  0  0  0  0
    6.0948   -0.5432   13.1915 H   0  0  0  0  0  0  0  0  0  0  0  0
    8.1712    0.9329   13.8934 H   0  0  0  0  0  0  0  0  0  0  0  0
    7.1306    2.3174   13.6551 H   0  0  0  0  0  0  0  0  0  0  0  0
    6.7007    3.1142   11.4343 H   0  0  0  0  0  0  0  0  0  0  0  0
    7.2375    2.9786    9.0379 H   0  0  0  0  0  0  0  0  0  0  0  0
    8.3884    0.9881    8.1225 H   0  0  0  0  0  0  0  0  0  0  0  0
    9.1004   -0.8432    9.6436 H   0  0  0  0  0  0  0  0  0  0  0  0
    8.6049   -0.7002   12.0601 H   0  0  0  0  0  0  0  0  0  0  0  0
    6.1087    1.3083   15.6068 H   0  0  0  0  0  0  0  0  0  0  0  0
    7.1940   -0.5111   16.5596 H   0  0  0  0  0  0  0  0  0  0  0  0
    5.2677    0.7515   17.4410 H   0  0  0  0  0  0  0  0  0  0  0  0
    3.9393    0.1665   15.6146 H   0  0  0  0  0  0  0  0  0  0  0  0
    5.9231   -2.4109   17.2601 H   0  0  0  0  0  0  0  0  0  0  0  0
    4.6492   -2.1067   14.5621 H   0  0  0  0  0  0  0  0  0  0  0  0
    2.4930   -1.6897   15.7300 H   0  0  0  0  0  0  0  0  0  0  0  0
    3.2420   -1.9310   17.2899 H   0  0  0  0  0  0  0  0  0  0  0  0
    3.3074   -4.0741   18.2862 H   0  0  0  0  0  0  0  0  0  0  0  0
    2.7306   -6.4476   18.1624 H   0  0  0  0  0  0  0  0  0  0  0  0
    2.0517   -7.5031   16.0525 H   0  0  0  0  0  0  0  0  0  0  0  0
    1.9269   -6.1278   13.9856 H   0  0  0  0  0  0  0  0  0  0  0  0
    2.4828   -3.7211   14.0654 H   0  0  0  0  0  0  0  0  0  0  0  0
    6.5797   -6.2503   15.9279 H   0  0  0  0  0  0  0  0  0  0  0  0
    7.5546   -3.8891   17.4884 H   0  0  0  0  0  0  0  0  0  0  0  0
    8.5608   -5.1489   14.8642 H   0  0  0  0  0  0  0  0  0  0  0  0
   10.3182   -3.3948   14.9413 H   0  0  0  0  0  0  0  0  0  0  0  0
    9.5307   -2.6530   16.3512 H   0  0  0  0  0  0  0  0  0  0  0  0
    8.7121   -2.6853   14.7805 H   0  0  0  0  0  0  0  0  0  0  0  0
    9.2634   -6.4118   16.9044 H   0  0  0  0  0  0  0  0  0  0  0  0
    9.9360   -4.9265   17.5923 H   0  0  0  0  0  0  0  0  0  0  0  0
   10.6287   -5.6308   16.1133 H   0  0  0  0  0  0  0  0  0  0  0  0
    4.7823   -8.9323   17.1237 H   0  0  0  0  0  0  0  0  0  0  0  0
    6.1682   -8.3107   16.1941 H   0  0  0  0  0  0  0  0  0  0  0  0
    4.7220   -7.3244   16.3528 H   0  0  0  0  0  0  0  0  0  0  0  0
    6.3399   -7.5426   20.1213 H   0  0  0  0  0  0  0  0  0  0  0  0
    5.9784   -9.0589   19.3214 H   0  0  0  0  0  0  0  0  0  0  0  0
    3.6727   -9.7919   19.0934 H   0  0  0  0  0  0  0  0  0  0  0  0
    1.2913   -9.4941   19.7343 H   0  0  0  0  0  0  0  0  0  0  0  0
    2.3236   -5.6049   21.2367 H   0  0  0  0  0  0  0  0  0  0  0  0
    0.5895   -7.3481   20.8108 H   0  0  0  0  0  0  0  0  0  0  0  0
  1  2  2  0  0  0  0
  1  3  1  0  0  0  0
  1 12  1  0  0  0  0
  3  4  1  0  0  0  0
  3  5  1  0  0  0  0
  4 59  1  0  0  0  0
  4 60  1  0  0  0  0
  4 61  1  0  0  0  0
  5  6  1  0  0  0  0
  5 62  1  0  0  0  0
  5 63  1  0  0  0  0
  6  7  2  0  0  0  0
  6  8  1  0  0  0  0
  7  9  1  0  0  0  0
  7 64  1  0  0  0  0
  8 10  2  0  0  0  0
  9 11  2  0  0  0  0
  9 65  1  0  0  0  0
 10 11  1  0  0  0  0
 10 66  1  0  0  0  0
 11 67  1  0  0  0  0
 12 13  1  0  0  0  0
 12 68  1  0  0  0  0
 13 14  1  0  0  0  0
 13 16  1  0  0  0  0
 13 69  1  1  0  0  0
 14 15  2  0  0  0  0
 14 19  1  0  0  0  0
 16 17  1  0  0  0  0
 16 18  1  0  0  0  0
 16 70  1  0  0  0  0
 17 71  1  0  0  0  0
 17 72  1  0  0  0  0
 17 73  1  0  0  0  0
 18 74  1  0  0  0  0
 18 75  1  0  0  0  0
 18 76  1  0  0  0  0
 19 20  1  0  0  0  0
 19 77  1  0  0  0  0
 20 21  1  0  0  0  0
 20 28  1  0  0  0  0
 20 78  1  6  0  0  0
 21 22  1  0  0  0  0
 21 79  1  0  0  0  0
 21 80  1  0  0  0  0
 22 23  2  0  0  0  0
 22 27  1  0  0  0  0
 23 24  1  0  0  0  0
 23 81  1  0  0  0  0
 24 25  2  0  0  0  0
 24 82  1  0  0  0  0
 25 26  1  0  0  0  0
 25 83  1  0  0  0  0
 26 27  2  0  0  0  0
 26 84  1  0  0  0  0
 27 85  1  0  0  0  0
 28 29  1  0  0  0  0
 28 31  1  0  0  0  0
 28 86  1  1  0  0  0
 29 87  1  0  0  0  0
 30 31  1  0  0  0  0
 30 88  1  0  0  0  0
 31 33  1  0  0  0  0
 31 89  1  6  0  0  0
 32 43  1  0  0  0  0
 32 33  1  0  0  0  0
 32 90  1  0  0  0  0
 33 34  1  0  0  0  0
 33 91  1  6  0  0  0
 34 35  1  0  0  0  0
 34 92  1  0  0  0  0
 34 93  1  0  0  0  0
 35 36  2  0  0  0  0
 35 40  1  0  0  0  0
 36 37  1  0  0  0  0
 36 94  1  0  0  0  0
 37 38  2  0  0  0  0
 37 95  1  0  0  0  0
 38 39  1  0  0  0  0
 38 96  1  0  0  0  0
 39 40  2  0  0  0  0
 39 97  1  0  0  0  0
 40 98  1  0  0  0  0
 41 42  1  0  0  0  0
 41 48  1  0  0  0  0
 41 99  1  0  0  0  0
 42 43  1  0  0  0  0
 42 45  1  0  0  0  0
 42100  1  1  0  0  0
 43 44  2  0  0  0  0
 45 46  1  0  0  0  0
 45 47  1  0  0  0  0
 45101  1  0  0  0  0
 46102  1  0  0  0  0
 46103  1  0  0  0  0
 46104  1  0  0  0  0
 47105  1  0  0  0  0
 47106  1  0  0  0  0
 47107  1  0  0  0  0
 48 49  2  0  0  0  0
 48 50  1  0  0  0  0
 50 51  1  0  0  0  0
 50 52  1  0  0  0  0
 51108  1  0  0  0  0
 51109  1  0  0  0  0
 51110  1  0  0  0  0
 52 53  1  0  0  0  0
 52111  1  0  0  0  0
 52112  1  0  0  0  0
 53 54  2  0  0  0  0
 53 55  1  0  0  0  0
 54 56  1  0  0  0  0
 54113  1  0  0  0  0
 55 57  2  0  0  0  0
 56 58  2  0  0  0  0
 56114  1  0  0  0  0
 57 58  1  0  0  0  0
 57115  1  0  0  0  0
 58116  1  0  0  0  0
M  END
$$$$
