A79
 OpenBabel04041915003D

116119  0  0  1  0  0  0  0  0999 V2000
    3.4426    3.3668   10.6996 C   0  0  0  0  0  0  0  0  0  0  0  0
    3.1028    4.0574   11.6578 O   0  0  0  0  0  0  0  0  0  0  0  0
    4.1008    3.8732    9.6032 N   0  0  0  0  0  0  0  0  0  0  0  0
    4.6662    3.0558    8.5436 C   0  0  0  0  0  0  0  0  0  0  0  0
    4.3669    5.3128    9.5953 C   0  0  0  0  0  0  0  0  0  0  0  0
    5.7791    5.6912    9.9894 C   0  0  0  0  0  0  0  0  0  0  0  0
    6.7035    6.0143    9.0029 C   0  0  0  0  0  0  0  0  0  0  0  0
    6.0882    5.7134   11.3121 N   0  0  0  0  0  0  0  0  0  0  0  0
    7.9899    6.3862    9.3854 C   0  0  0  0  0  0  0  0  0  0  0  0
    7.3395    6.0848   11.6543 C   0  0  0  0  0  0  0  0  0  0  0  0
    8.3127    6.4255   10.7354 C   0  0  0  0  0  0  0  0  0  0  0  0
    3.1219    2.0412   10.6451 N   0  0  0  0  0  0  0  0  0  0  0  0
    2.4958    1.3951   11.7881 C   0  0  2  0  0  0  0  0  0  0  0  0
    3.5226    0.4356   12.4050 C   0  0  0  0  0  0  0  0  0  0  0  0
    3.6442   -0.7339   12.0458 O   0  0  0  0  0  0  0  0  0  0  0  0
    1.1962    0.6625   11.4090 C   0  0  0  0  0  0  0  0  0  0  0  0
    0.2061    1.6000   10.7122 C   0  0  0  0  0  0  0  0  0  0  0  0
    0.5320    0.0784   12.6628 C   0  0  0  0  0  0  0  0  0  0  0  0
    4.3063    1.0090   13.3795 N   0  0  0  0  0  0  0  0  0  0  0  0
    5.2429    0.2191   14.1774 C   0  0  1  0  0  0  0  0  0  0  0  0
    6.6578    0.8248   14.1188 C   0  0  0  0  0  0  0  0  0  0  0  0
    7.1889    0.9527   12.7128 C   0  0  0  0  0  0  0  0  0  0  0  0
    7.7063   -0.1620   12.0411 C   0  0  0  0  0  0  0  0  0  0  0  0
    8.1840   -0.0355   10.7371 C   0  0  0  0  0  0  0  0  0  0  0  0
    8.1382    1.2000   10.0942 C   0  0  0  0  0  0  0  0  0  0  0  0
    7.6197    2.3101   10.7560 C   0  0  0  0  0  0  0  0  0  0  0  0
    7.1426    2.1889   12.0582 C   0  0  0  0  0  0  0  0  0  0  0  0
    4.6920    0.1201   15.6255 C   0  0  2  0  0  0  0  0  0  0  0  0
    4.8312    1.3981   16.2710 O   0  0  0  0  0  0  0  0  0  0  0  0
    5.1827   -0.7479   17.8628 O   0  0  0  0  0  0  0  0  0  0  0  0
    5.3942   -0.9700   16.4556 C   0  0  1  0  0  0  0  0  0  0  0  0
    5.8467   -3.3448   16.5680 N   0  0  0  0  0  0  0  0  0  0  0  0
    4.8771   -2.3805   16.0860 C   0  0  1  0  0  0  0  0  0  0  0  0
    3.4846   -2.7035   16.6633 C   0  0  0  0  0  0  0  0  0  0  0  0
    3.0719   -4.1242   16.3545 C   0  0  0  0  0  0  0  0  0  0  0  0
    2.5399   -4.4482   15.1005 C   0  0  0  0  0  0  0  0  0  0  0  0
    2.2575   -5.7748   14.7775 C   0  0  0  0  0  0  0  0  0  0  0  0
    2.5027   -6.7858   15.7013 C   0  0  0  0  0  0  0  0  0  0  0  0
    3.0133   -6.4654   16.9555 C   0  0  0  0  0  0  0  0  0  0  0  0
    3.3021   -5.1445   17.2848 C   0  0  0  0  0  0  0  0  0  0  0  0
    7.0704   -6.2030   16.8077 N   0  0  0  0  0  0  0  0  0  0  0  0
    7.6627   -4.9087   16.4965 C   0  0  2  0  0  0  0  0  0  0  0  0
    6.6463   -4.0623   15.7132 C   0  0  0  0  0  0  0  0  0  0  0  0
    6.5648   -4.0363   14.5007 O   0  0  0  0  0  0  0  0  0  0  0  0
    8.9741   -5.0365   15.7145 C   0  0  0  0  0  0  0  0  0  0  0  0
    9.9559   -5.8719   16.5344 C   0  0  0  0  0  0  0  0  0  0  0  0
    9.5712   -3.6491   15.4501 C   0  0  0  0  0  0  0  0  0  0  0  0
    6.8870   -6.6306   18.0960 C   0  0  0  0  0  0  0  0  0  0  0  0
    7.2434   -5.9460   19.0524 O   0  0  0  0  0  0  0  0  0  0  0  0
    6.3154   -7.8835   18.2254 N   0  0  0  0  0  0  0  0  0  0  0  0
    5.8595   -8.6743   17.0977 C   0  0  0  0  0  0  0  0  0  0  0  0
    6.0174   -8.3826   19.5711 C   0  0  0  0  0  0  0  0  0  0  0  0
    4.6563   -7.9602   20.0872 C   0  0  0  0  0  0  0  0  0  0  0  0
    3.5551   -8.8116   19.9506 C   0  0  0  0  0  0  0  0  0  0  0  0
    4.5468   -6.7352   20.6634 N   0  0  0  0  0  0  0  0  0  0  0  0
    2.3136   -8.3805   20.4113 C   0  0  0  0  0  0  0  0  0  0  0  0
    3.3364   -6.3468   21.1041 C   0  0  0  0  0  0  0  0  0  0  0  0
    2.1983   -7.1302   20.9998 C   0  0  0  0  0  0  0  0  0  0  0  0
    5.1689    3.6689    7.7916 H   0  0  0  0  0  0  0  0  0  0  0  0
    3.8614    2.4937    8.0599 H   0  0  0  0  0  0  0  0  0  0  0  0
    5.3751    2.3453    8.9749 H   0  0  0  0  0  0  0  0  0  0  0  0
    3.6844    5.8311   10.2787 H   0  0  0  0  0  0  0  0  0  0  0  0
    4.1338    5.6936    8.5951 H   0  0  0  0  0  0  0  0  0  0  0  0
    6.4354    5.9918    7.9518 H   0  0  0  0  0  0  0  0  0  0  0  0
    8.7271    6.6516    8.6340 H   0  0  0  0  0  0  0  0  0  0  0  0
    7.5421    6.0897   12.7237 H   0  0  0  0  0  0  0  0  0  0  0  0
    9.2978    6.7158   11.0587 H   0  0  0  0  0  0  0  0  0  0  0  0
    3.3873    1.4701    9.8573 H   0  0  0  0  0  0  0  0  0  0  0  0
    2.2537    2.1459   12.5485 H   0  0  0  0  0  0  0  0  0  0  0  0
    1.4237   -0.1636   10.7239 H   0  0  0  0  0  0  0  0  0  0  0  0
   -0.7279    1.0746   10.4882 H   0  0  0  0  0  0  0  0  0  0  0  0
    0.6110    1.9690    9.7648 H   0  0  0  0  0  0  0  0  0  0  0  0
   -0.0348    2.4651   11.3402 H   0  0  0  0  0  0  0  0  0  0  0  0
    1.2062   -0.5970   13.1985 H   0  0  0  0  0  0  0  0  0  0  0  0
   -0.3591   -0.4950   12.3924 H   0  0  0  0  0  0  0  0  0  0  0  0
    0.2304    0.8707   13.3577 H   0  0  0  0  0  0  0  0  0  0  0  0
    4.2260    2.0051   13.5670 H   0  0  0  0  0  0  0  0  0  0  0  0
    5.2844   -0.7867   13.7471 H   0  0  0  0  0  0  0  0  0  0  0  0
    7.3608    0.2004   14.6816 H   0  0  0  0  0  0  0  0  0  0  0  0
    6.6757    1.8117   14.5960 H   0  0  0  0  0  0  0  0  0  0  0  0
    7.7330   -1.1348   12.5286 H   0  0  0  0  0  0  0  0  0  0  0  0
    8.5884   -0.9026   10.2231 H   0  0  0  0  0  0  0  0  0  0  0  0
    8.5010    1.2983    9.0758 H   0  0  0  0  0  0  0  0  0  0  0  0
    7.5719    3.2723   10.2566 H   0  0  0  0  0  0  0  0  0  0  0  0
    6.7220    3.0623   12.5542 H   0  0  0  0  0  0  0  0  0  0  0  0
    3.6176   -0.0962   15.5909 H   0  0  0  0  0  0  0  0  0  0  0  0
    4.3648    1.3365   17.1236 H   0  0  0  0  0  0  0  0  0  0  0  0
    5.6490    0.0738   18.0983 H   0  0  0  0  0  0  0  0  0  0  0  0
    6.4791   -0.9209   16.2987 H   0  0  0  0  0  0  0  0  0  0  0  0
    5.9030   -3.5127   17.5690 H   0  0  0  0  0  0  0  0  0  0  0  0
    4.8296   -2.4664   14.9956 H   0  0  0  0  0  0  0  0  0  0  0  0
    2.7334   -2.0236   16.2476 H   0  0  0  0  0  0  0  0  0  0  0  0
    3.4665   -2.5592   17.7505 H   0  0  0  0  0  0  0  0  0  0  0  0
    2.3657   -3.6695   14.3618 H   0  0  0  0  0  0  0  0  0  0  0  0
    1.8539   -6.0183   13.7987 H   0  0  0  0  0  0  0  0  0  0  0  0
    2.3026   -7.8214   15.4450 H   0  0  0  0  0  0  0  0  0  0  0  0
    3.2125   -7.2489   17.6756 H   0  0  0  0  0  0  0  0  0  0  0  0
    3.7371   -4.9252   18.2590 H   0  0  0  0  0  0  0  0  0  0  0  0
    6.8304   -6.7962   16.0319 H   0  0  0  0  0  0  0  0  0  0  0  0
    7.8809   -4.3769   17.4324 H   0  0  0  0  0  0  0  0  0  0  0  0
    8.7962   -5.5327   14.7513 H   0  0  0  0  0  0  0  0  0  0  0  0
   10.9155   -5.9635   16.0248 H   0  0  0  0  0  0  0  0  0  0  0  0
    9.5640   -6.8807   16.6995 H   0  0  0  0  0  0  0  0  0  0  0  0
   10.1213   -5.4127   17.5160 H   0  0  0  0  0  0  0  0  0  0  0  0
    8.9021   -3.0261   14.8427 H   0  0  0  0  0  0  0  0  0  0  0  0
   10.5164   -3.7267   14.9061 H   0  0  0  0  0  0  0  0  0  0  0  0
    9.7532   -3.1123   16.3868 H   0  0  0  0  0  0  0  0  0  0  0  0
    5.4256   -9.6187   17.4262 H   0  0  0  0  0  0  0  0  0  0  0  0
    6.7126   -8.8751   16.4441 H   0  0  0  0  0  0  0  0  0  0  0  0
    5.1198   -8.1041   16.5357 H   0  0  0  0  0  0  0  0  0  0  0  0
    6.7812   -8.0311   20.2756 H   0  0  0  0  0  0  0  0  0  0  0  0
    6.0913   -9.4765   19.5608 H   0  0  0  0  0  0  0  0  0  0  0  0
    3.6524   -9.7830   19.4842 H   0  0  0  0  0  0  0  0  0  0  0  0
    1.4433   -9.0213   20.2971 H   0  0  0  0  0  0  0  0  0  0  0  0
    3.3038   -5.3593   21.5505 H   0  0  0  0  0  0  0  0  0  0  0  0
    1.2457   -6.7615   21.3638 H   0  0  0  0  0  0  0  0  0  0  0  0
  1  2  2  0  0  0  0
  1  3  1  0  0  0  0
  1 12  1  0  0  0  0
  3  4  1  0  0  0  0
  3  5  1  0  0  0  0
  4 59  1  0  0  0  0
  4 60  1  0  0  0  0
  4 61  1  0  0  0  0
  5  6  1  0  0  0  0
  5 62  1  0  0  0  0
  5 63  1  0  0  0  0
  6  7  2  0  0  0  0
  6  8  1  0  0  0  0
  7  9  1  0  0  0  0
  7 64  1  0  0  0  0
  8 10  2  0  0  0  0
  9 11  2  0  0  0  0
  9 65  1  0  0  0  0
 10 11  1  0  0  0  0
 10 66  1  0  0  0  0
 11 67  1  0  0  0  0
 12 13  1  0  0  0  0
 12 68  1  0  0  0  0
 13 14  1  0  0  0  0
 13 16  1  0  0  0  0
 13 69  1  1  0  0  0
 14 15  2  0  0  0  0
 14 19  1  0  0  0  0
 16 17  1  0  0  0  0
 16 18  1  0  0  0  0
 16 70  1  0  0  0  0
 17 71  1  0  0  0  0
 17 72  1  0  0  0  0
 17 73  1  0  0  0  0
 18 74  1  0  0  0  0
 18 75  1  0  0  0  0
 18 76  1  0  0  0  0
 19 20  1  0  0  0  0
 19 77  1  0  0  0  0
 20 21  1  0  0  0  0
 20 28  1  0  0  0  0
 20 78  1  6  0  0  0
 21 22  1  0  0  0  0
 21 79  1  0  0  0  0
 21 80  1  0  0  0  0
 22 23  2  0  0  0  0
 22 27  1  0  0  0  0
 23 24  1  0  0  0  0
 23 81  1  0  0  0  0
 24 25  2  0  0  0  0
 24 82  1  0  0  0  0
 25 26  1  0  0  0  0
 25 83  1  0  0  0  0
 26 27  2  0  0  0  0
 26 84  1  0  0  0  0
 27 85  1  0  0  0  0
 28 29  1  0  0  0  0
 28 31  1  0  0  0  0
 28 86  1  6  0  0  0
 29 87  1  0  0  0  0
 30 31  1  0  0  0  0
 30 88  1  0  0  0  0
 31 33  1  0  0  0  0
 31 89  1  6  0  0  0
 32 43  1  0  0  0  0
 32 33  1  0  0  0  0
 32 90  1  0  0  0  0
 33 34  1  0  0  0  0
 33 91  1  6  0  0  0
 34 35  1  0  0  0  0
 34 92  1  0  0  0  0
 34 93  1  0  0  0  0
 35 36  2  0  0  0  0
 35 40  1  0  0  0  0
 36 37  1  0  0  0  0
 36 94  1  0  0  0  0
 37 38  2  0  0  0  0
 37 95  1  0  0  0  0
 38 39  1  0  0  0  0
 38 96  1  0  0  0  0
 39 40  2  0  0  0  0
 39 97  1  0  0  0  0
 40 98  1  0  0  0  0
 41 42  1  0  0  0  0
 41 48  1  0  0  0  0
 41 99  1  0  0  0  0
 42 43  1  0  0  0  0
 42 45  1  0  0  0  0
 42100  1  1  0  0  0
 43 44  2  0  0  0  0
 45 46  1  0  0  0  0
 45 47  1  0  0  0  0
 45101  1  0  0  0  0
 46102  1  0  0  0  0
 46103  1  0  0  0  0
 46104  1  0  0  0  0
 47105  1  0  0  0  0
 47106  1  0  0  0  0
 47107  1  0  0  0  0
 48 49  2  0  0  0  0
 48 50  1  0  0  0  0
 50 51  1  0  0  0  0
 50 52  1  0  0  0  0
 51108  1  0  0  0  0
 51109  1  0  0  0  0
 51110  1  0  0  0  0
 52 53  1  0  0  0  0
 52111  1  0  0  0  0
 52112  1  0  0  0  0
 53 54  2  0  0  0  0
 53 55  1  0  0  0  0
 54 56  1  0  0  0  0
 54113  1  0  0  0  0
 55 57  2  0  0  0  0
 56 58  2  0  0  0  0
 56114  1  0  0  0  0
 57 58  1  0  0  0  0
 57115  1  0  0  0  0
 58116  1  0  0  0  0
M  END
$$$$
