A83
 OpenBabel04041918003D

 99102  0  0  1  0  0  0  0  0999 V2000
  -11.2951   15.0628   33.0687 C   0  0  0  0  0  0  0  0  0  0  0  0
  -11.8644   16.0857   32.8446 O   0  0  0  0  0  0  0  0  0  0  0  0
   -9.8939   14.9313   32.8939 N   0  0  0  0  0  0  0  0  0  0  0  0
   -9.1333   15.9255   32.2572 C   0  0  0  0  0  0  0  0  0  0  0  0
   -9.1763   15.7588   30.7878 C   0  0  0  0  0  0  0  0  0  0  0  0
  -10.0371   16.3716   29.8973 C   0  0  0  0  0  0  0  0  0  0  0  0
   -9.6671   15.8974   28.6814 N   0  3  0  0  0  0  0  0  0  0  0  0
   -8.6424   15.0274   28.7969 N   0  0  0  0  0  0  0  0  0  0  0  0
   -8.3268   14.9397   30.0878 N   0  0  0  0  0  0  0  0  0  0  0  0
  -10.2640   16.1655   27.3647 C   0  0  2  0  0  0  0  0  0  0  0  0
  -10.0708   17.6613   26.9318 C   0  0  1  0  0  0  0  0  0  0  0  0
   -9.6390   17.8573   25.4507 C   0  0  0  0  0  0  0  0  0  0  0  0
   -8.4574   17.0361   25.1180 N   0  0  0  0  0  0  0  0  0  0  0  0
   -7.1300   17.6267   25.4225 C   0  0  0  0  0  0  0  0  0  0  0  0
   -6.2943   16.6943   26.3212 C   0  0  0  0  0  0  0  0  0  0  0  0
   -4.8664   16.5635   25.7931 C   0  0  0  0  0  0  0  0  0  0  0  0
   -6.2950   17.1121   27.7915 C   0  0  0  0  0  0  0  0  0  0  0  0
   -8.6448   15.6571   24.1365 S   0  0  0  0  0  0  0  0  0  0  0  0
  -10.0303   15.2472   24.2413 O   0  0  0  0  0  0  0  0  0  0  0  0
   -7.5857   14.7188   24.4281 O   0  0  0  0  0  0  0  0  0  0  0  0
   -8.3928   16.1956   22.4633 C   0  0  0  0  0  0  0  0  0  0  0  0
   -7.1477   15.9991   21.8550 C   0  0  0  0  0  0  0  0  0  0  0  0
   -6.9709   16.3150   20.5027 C   0  0  0  0  0  0  0  0  0  0  0  0
   -8.0354   16.8110   19.7515 C   0  0  0  0  0  0  0  0  0  0  0  0
   -9.2877   16.9689   20.3606 C   0  0  0  0  0  0  0  0  0  0  0  0
   -9.4762   16.6457   21.7090 C   0  0  0  0  0  0  0  0  0  0  0  0
   -7.9737   17.1663   18.4313 O   0  0  0  0  0  0  0  0  0  0  0  0
   -6.7291   16.9924   17.7571 C   0  0  0  0  0  0  0  0  0  0  0  0
  -11.7276   15.6794   27.3265 C   0  0  0  0  0  0  0  0  0  0  0  0
  -11.2472   18.4569   27.1640 O   0  0  0  0  0  0  0  0  0  0  0  0
  -11.9666   14.2321   27.7118 C   0  0  0  0  0  0  0  0  0  0  0  0
  -11.4502   13.1848   26.9394 C   0  0  0  0  0  0  0  0  0  0  0  0
  -11.6948   11.8546   27.2921 C   0  0  0  0  0  0  0  0  0  0  0  0
  -12.4443   11.5561   28.4286 C   0  0  0  0  0  0  0  0  0  0  0  0
  -12.9629   12.5883   29.2058 C   0  0  0  0  0  0  0  0  0  0  0  0
  -12.7383   13.9179   28.8421 C   0  0  0  0  0  0  0  0  0  0  0  0
  -11.9965   13.8569   33.5275 C   0  0  0  0  0  0  0  0  0  0  0  0
  -13.3593   14.0106   33.7478 C   0  0  0  0  0  0  0  0  0  0  0  0
  -14.0486   12.9550   34.3338 C   0  0  0  0  0  0  0  0  0  0  0  0
  -13.4461   11.7129   34.6040 C   0  0  0  0  0  0  0  0  0  0  0  0
  -12.0898   11.5533   34.3126 C   0  0  0  0  0  0  0  0  0  0  0  0
  -11.3705   12.6252   33.8023 C   0  0  0  0  0  0  0  0  0  0  0  0
  -14.2545   10.4916   35.0204 C   0  0  0  0  0  0  0  0  0  0  0  0
  -15.5984   10.8521   35.4319 N   0  0  0  0  0  0  0  0  0  0  0  0
  -16.7203   10.0955   35.2334 C   0  0  0  0  0  0  0  0  0  0  0  0
  -17.4343    9.7880   36.1808 O   0  0  0  0  0  0  0  0  0  0  0  0
  -17.0886    9.7778   33.9568 O   0  0  0  0  0  0  0  0  0  0  0  0
  -16.5887   10.2091   32.6411 C   0  0  0  0  0  0  0  0  0  0  0  0
  -17.7901   10.4267   31.7337 C   0  0  0  0  0  0  0  0  0  0  0  0
  -15.9318   11.5543   32.6353 C   0  0  0  0  0  0  0  0  0  0  0  0
  -15.6725    9.1194   32.0998 C   0  0  0  0  0  0  0  0  0  0  0  0
   -9.4325   14.0565   33.1521 H   0  0  0  0  0  0  0  0  0  0  0  0
   -8.1035   15.8407   32.6487 H   0  0  0  0  0  0  0  0  0  0  0  0
   -9.5163   16.9176   32.5298 H   0  0  0  0  0  0  0  0  0  0  0  0
  -10.8476   17.0606   30.0637 H   0  0  0  0  0  0  0  0  0  0  0  0
   -9.6776   15.5433   26.6896 H   0  0  0  0  0  0  0  0  0  0  0  0
   -9.2924   18.1215   27.5525 H   0  0  0  0  0  0  0  0  0  0  0  0
   -9.4327   18.9235   25.2675 H   0  0  0  0  0  0  0  0  0  0  0  0
  -10.4795   17.6402   24.7830 H   0  0  0  0  0  0  0  0  0  0  0  0
   -7.2616   18.5948   25.9264 H   0  0  0  0  0  0  0  0  0  0  0  0
   -6.6242   17.8496   24.4770 H   0  0  0  0  0  0  0  0  0  0  0  0
   -6.7265   15.6927   26.3145 H   0  0  0  0  0  0  0  0  0  0  0  0
   -4.2738   15.9068   26.4382 H   0  0  0  0  0  0  0  0  0  0  0  0
   -4.3590   17.5320   25.7327 H   0  0  0  0  0  0  0  0  0  0  0  0
   -4.8721   16.1206   24.7913 H   0  0  0  0  0  0  0  0  0  0  0  0
   -7.3131   17.2364   28.1604 H   0  0  0  0  0  0  0  0  0  0  0  0
   -5.7655   18.0525   27.9653 H   0  0  0  0  0  0  0  0  0  0  0  0
   -5.8222   16.3351   28.4046 H   0  0  0  0  0  0  0  0  0  0  0  0
   -6.3141   15.5825   22.4180 H   0  0  0  0  0  0  0  0  0  0  0  0
   -5.9940   16.1561   20.0585 H   0  0  0  0  0  0  0  0  0  0  0  0
  -10.1287   17.3369   19.7763 H   0  0  0  0  0  0  0  0  0  0  0  0
  -10.4667   16.7305   22.1516 H   0  0  0  0  0  0  0  0  0  0  0  0
   -6.8725   17.3140   16.7209 H   0  0  0  0  0  0  0  0  0  0  0  0
   -6.4216   15.9409   17.7361 H   0  0  0  0  0  0  0  0  0  0  0  0
   -5.9413   17.6188   18.1905 H   0  0  0  0  0  0  0  0  0  0  0  0
  -12.1305   15.8156   26.3151 H   0  0  0  0  0  0  0  0  0  0  0  0
  -12.3284   16.3101   27.9914 H   0  0  0  0  0  0  0  0  0  0  0  0
  -11.9382   18.1888   26.5319 H   0  0  0  0  0  0  0  0  0  0  0  0
  -10.8554   13.3926   26.0526 H   0  0  0  0  0  0  0  0  0  0  0  0
  -11.2937   11.0516   26.6790 H   0  0  0  0  0  0  0  0  0  0  0  0
  -12.6213   10.5204   28.7065 H   0  0  0  0  0  0  0  0  0  0  0  0
  -13.5409   12.3595   30.0974 H   0  0  0  0  0  0  0  0  0  0  0  0
  -13.1699   14.7080   29.4543 H   0  0  0  0  0  0  0  0  0  0  0  0
  -13.8911   14.9163   33.4928 H   0  0  0  0  0  0  0  0  0  0  0  0
  -15.1322   13.1135   34.4508 H   0  0  0  0  0  0  0  0  0  0  0  0
  -11.5775   10.6126   34.4842 H   0  0  0  0  0  0  0  0  0  0  0  0
  -10.3087   12.4707   33.6516 H   0  0  0  0  0  0  0  0  0  0  0  0
  -13.7421    9.9034   35.7827 H   0  0  0  0  0  0  0  0  0  0  0  0
  -14.3465    9.8096   34.1912 H   0  0  0  0  0  0  0  0  0  0  0  0
  -15.6681   11.5263   36.1920 H   0  0  0  0  0  0  0  0  0  0  0  0
  -17.4628   10.7447   30.7375 H   0  0  0  0  0  0  0  0  0  0  0  0
  -18.4432   11.2004   32.1455 H   0  0  0  0  0  0  0  0  0  0  0  0
  -18.3745    9.5043   31.6510 H   0  0  0  0  0  0  0  0  0  0  0  0
  -15.4337   11.8981   31.7214 H   0  0  0  0  0  0  0  0  0  0  0  0
  -15.0899   11.3602   33.2182 H   0  0  0  0  0  0  0  0  0  0  0  0
  -16.5245   12.3438   33.1080 H   0  0  0  0  0  0  0  0  0  0  0  0
  -15.2021    9.4269   31.1528 H   0  0  0  0  0  0  0  0  0  0  0  0
  -16.2340    8.1915   31.9577 H   0  0  0  0  0  0  0  0  0  0  0  0
  -14.8578    8.8306   32.7579 H   0  0  0  0  0  0  0  0  0  0  0  0
  1  2  2  0  0  0  0
  1  3  1  0  0  0  0
  1 37  1  0  0  0  0
  3  4  1  0  0  0  0
  3 52  1  0  0  0  0
  4  5  1  0  0  0  0
  4 53  1  0  0  0  0
  4 54  1  0  0  0  0
  5  6  1  0  0  0  0
  5  9  2  0  0  0  0
  6  7  2  0  0  0  0
  6 55  1  0  0  0  0
  7  8  1  0  0  0  0
  7 10  1  0  0  0  0
  8  9  1  0  0  0  0
 10 11  1  0  0  0  0
 10 29  1  0  0  0  0
 10 56  1  6  0  0  0
 11 12  1  0  0  0  0
 11 30  1  0  0  0  0
 11 57  1  1  0  0  0
 12 13  1  0  0  0  0
 12 58  1  0  0  0  0
 12 59  1  0  0  0  0
 13 14  1  0  0  0  0
 13 18  1  0  0  0  0
 14 15  1  0  0  0  0
 14 60  1  0  0  0  0
 14 61  1  0  0  0  0
 15 16  1  0  0  0  0
 15 17  1  0  0  0  0
 15 62  1  0  0  0  0
 16 63  1  0  0  0  0
 16 64  1  0  0  0  0
 16 65  1  0  0  0  0
 17 66  1  0  0  0  0
 17 67  1  0  0  0  0
 17 68  1  0  0  0  0
 18 19  2  0  0  0  0
 18 20  2  0  0  0  0
 18 21  1  0  0  0  0
 21 22  2  0  0  0  0
 21 26  1  0  0  0  0
 22 23  1  0  0  0  0
 22 69  1  0  0  0  0
 23 24  2  0  0  0  0
 23 70  1  0  0  0  0
 24 25  1  0  0  0  0
 24 27  1  0  0  0  0
 25 26  2  0  0  0  0
 25 71  1  0  0  0  0
 26 72  1  0  0  0  0
 27 28  1  0  0  0  0
 28 73  1  0  0  0  0
 28 74  1  0  0  0  0
 28 75  1  0  0  0  0
 29 31  1  0  0  0  0
 29 76  1  0  0  0  0
 29 77  1  0  0  0  0
 30 78  1  0  0  0  0
 31 32  2  0  0  0  0
 31 36  1  0  0  0  0
 32 33  1  0  0  0  0
 32 79  1  0  0  0  0
 33 34  2  0  0  0  0
 33 80  1  0  0  0  0
 34 35  1  0  0  0  0
 34 81  1  0  0  0  0
 35 36  2  0  0  0  0
 35 82  1  0  0  0  0
 36 83  1  0  0  0  0
 37 38  2  0  0  0  0
 37 42  1  0  0  0  0
 38 39  1  0  0  0  0
 38 84  1  0  0  0  0
 39 40  2  0  0  0  0
 39 85  1  0  0  0  0
 40 41  1  0  0  0  0
 40 43  1  0  0  0  0
 41 42  2  0  0  0  0
 41 86  1  0  0  0  0
 42 87  1  0  0  0  0
 43 44  1  0  0  0  0
 43 88  1  0  0  0  0
 43 89  1  0  0  0  0
 44 45  1  0  0  0  0
 44 90  1  0  0  0  0
 45 46  2  0  0  0  0
 45 47  1  0  0  0  0
 47 48  1  0  0  0  0
 48 49  1  0  0  0  0
 48 50  1  0  0  0  0
 48 51  1  0  0  0  0
 49 91  1  0  0  0  0
 49 92  1  0  0  0  0
 49 93  1  0  0  0  0
 50 94  1  0  0  0  0
 50 95  1  0  0  0  0
 50 96  1  0  0  0  0
 51 97  1  0  0  0  0
 51 98  1  0  0  0  0
 51 99  1  0  0  0  0
M  CHG  1   7   1
M  END
$$$$
