A88
 OpenBabel04041916243D

 81 85  0  0  1  0  0  0  0  0999 V2000
   -8.6028   17.5443   26.8906 N   0  3  1  0  0  0  0  0  0  0  0  0
   -8.6482   16.0824   26.6975 N   0  0  0  0  0  0  0  0  0  0  0  0
   -8.7903   15.2048   27.7858 C   0  0  0  0  0  0  0  0  0  0  0  0
   -8.2280   14.1097   27.7735 O   0  0  0  0  0  0  0  0  0  0  0  0
   -9.5538   15.6147   28.8792 N   0  0  0  0  0  0  0  0  0  0  0  0
  -10.8066   16.4009   28.7175 C   0  0  1  0  0  0  0  0  0  0  0  0
  -10.5531   17.8854   28.3798 C   0  0  2  0  0  0  0  0  0  0  0  0
  -11.7716   18.6172   28.5171 O   0  0  0  0  0  0  0  0  0  0  0  0
   -9.9638   18.1130   26.9964 C   0  0  0  0  0  0  0  0  0  0  0  0
   -7.5832   17.9695   27.9272 C   0  0  0  0  0  0  0  0  0  0  0  0
   -6.2330   18.0307   27.2916 C   0  0  0  0  0  0  0  0  0  0  0  0
   -5.9669   19.0116   26.3210 C   0  0  0  0  0  0  0  0  0  0  0  0
   -4.7727   18.9760   25.6146 C   0  0  0  0  0  0  0  0  0  0  0  0
   -3.8487   17.9655   25.8683 C   0  0  0  0  0  0  0  0  0  0  0  0
   -4.1081   16.9963   26.8365 C   0  0  0  0  0  0  0  0  0  0  0  0
   -5.2966   17.0283   27.5542 C   0  0  0  0  0  0  0  0  0  0  0  0
  -11.8469   15.7251   27.7833 C   0  0  0  0  0  0  0  0  0  0  0  0
  -12.5167   14.5265   28.4159 C   0  0  0  0  0  0  0  0  0  0  0  0
  -13.5109   14.6899   29.3910 C   0  0  0  0  0  0  0  0  0  0  0  0
  -14.1183   13.5785   29.9818 C   0  0  0  0  0  0  0  0  0  0  0  0
  -13.7303   12.2917   29.6170 C   0  0  0  0  0  0  0  0  0  0  0  0
  -12.7418   12.1154   28.6494 C   0  0  0  0  0  0  0  0  0  0  0  0
  -12.1397   13.2245   28.0513 C   0  0  0  0  0  0  0  0  0  0  0  0
   -9.4812   14.6887   30.0350 C   0  0  0  0  0  0  0  0  0  0  0  0
   -9.7592   15.3231   31.3734 C   0  0  0  0  0  0  0  0  0  0  0  0
  -10.9063   14.9586   32.1156 C   0  0  0  0  0  0  0  0  0  0  0  0
  -11.1726   15.5395   33.3551 C   0  0  0  0  0  0  0  0  0  0  0  0
  -10.2359   16.4644   33.8587 C   0  0  0  0  0  0  0  0  0  0  0  0
   -9.0872   16.8202   33.1428 C   0  0  0  0  0  0  0  0  0  0  0  0
   -8.8568   16.2594   31.8900 C   0  0  0  0  0  0  0  0  0  0  0  0
  -10.4425   17.0346   35.0881 O   0  0  0  0  0  0  0  0  0  0  0  0
  -12.3053   15.3256   34.0948 O   0  0  0  0  0  0  0  0  0  0  0  0
  -13.1348   14.1940   33.8350 C   0  0  0  0  0  0  0  0  0  0  0  0
   -7.8944   15.5374   25.5332 C   0  0  0  0  0  0  0  0  0  0  0  0
   -8.3394   16.1279   24.2269 C   0  0  0  0  0  0  0  0  0  0  0  0
   -9.6106   15.8519   23.7202 C   0  0  0  0  0  0  0  0  0  0  0  0
   -9.9844   16.3574   22.4725 C   0  0  0  0  0  0  0  0  0  0  0  0
   -9.0991   17.1599   21.7520 C   0  0  0  0  0  0  0  0  0  0  0  0
   -7.8401   17.4758   22.2600 C   0  0  0  0  0  0  0  0  0  0  0  0
   -7.4533   16.9370   23.4693 C   0  0  0  0  0  0  0  0  0  0  0  0
   -9.5110   17.6565   20.5519 O   0  0  0  0  0  0  0  0  0  0  0  0
   -7.0082   18.2833   21.5080 O   0  0  0  0  0  0  0  0  0  0  0  0
   -6.3111   19.2824   22.2480 C   0  0  0  0  0  0  0  0  0  0  0  0
  -11.2704   16.4567   29.7060 H   0  0  0  0  0  0  0  0  0  0  0  0
   -9.8604   18.2946   29.1259 H   0  0  0  0  0  0  0  0  0  0  0  0
  -11.5893   19.5692   28.6214 H   0  0  0  0  0  0  0  0  0  0  0  0
  -10.5824   17.7418   26.1700 H   0  0  0  0  0  0  0  0  0  0  0  0
   -9.8477   19.1906   26.8102 H   0  0  0  0  0  0  0  0  0  0  0  0
   -7.6145   17.3265   28.8132 H   0  0  0  0  0  0  0  0  0  0  0  0
   -7.8515   18.9832   28.2567 H   0  0  0  0  0  0  0  0  0  0  0  0
   -6.6905   19.7929   26.0888 H   0  0  0  0  0  0  0  0  0  0  0  0
   -4.5600   19.7274   24.8573 H   0  0  0  0  0  0  0  0  0  0  0  0
   -2.9133   17.9374   25.3146 H   0  0  0  0  0  0  0  0  0  0  0  0
   -3.3812   16.2105   27.0287 H   0  0  0  0  0  0  0  0  0  0  0  0
   -5.4982   16.2481   28.2871 H   0  0  0  0  0  0  0  0  0  0  0  0
  -11.3823   15.4216   26.8388 H   0  0  0  0  0  0  0  0  0  0  0  0
  -12.6335   16.4386   27.5087 H   0  0  0  0  0  0  0  0  0  0  0  0
  -13.8243   15.6831   29.7025 H   0  0  0  0  0  0  0  0  0  0  0  0
  -14.9007   13.7141   30.7243 H   0  0  0  0  0  0  0  0  0  0  0  0
  -14.2079   11.4271   30.0718 H   0  0  0  0  0  0  0  0  0  0  0  0
  -12.4481   11.1131   28.3541 H   0  0  0  0  0  0  0  0  0  0  0  0
  -11.3650   13.0580   27.3045 H   0  0  0  0  0  0  0  0  0  0  0  0
   -8.4600   14.2900   30.0876 H   0  0  0  0  0  0  0  0  0  0  0  0
  -10.1286   13.8233   29.8714 H   0  0  0  0  0  0  0  0  0  0  0  0
  -11.5877   14.2254   31.6964 H   0  0  0  0  0  0  0  0  0  0  0  0
   -8.3676   17.5251   33.5474 H   0  0  0  0  0  0  0  0  0  0  0  0
   -7.9652   16.5359   31.3349 H   0  0  0  0  0  0  0  0  0  0  0  0
   -9.6945   17.6150   35.3037 H   0  0  0  0  0  0  0  0  0  0  0  0
  -14.0253   14.2858   34.4701 H   0  0  0  0  0  0  0  0  0  0  0  0
  -12.6323   13.2625   34.1146 H   0  0  0  0  0  0  0  0  0  0  0  0
  -13.4982   14.1445   32.8043 H   0  0  0  0  0  0  0  0  0  0  0  0
   -7.9893   14.4509   25.4715 H   0  0  0  0  0  0  0  0  0  0  0  0
   -6.8308   15.7455   25.7031 H   0  0  0  0  0  0  0  0  0  0  0  0
  -10.2932   15.2115   24.2543 H   0  0  0  0  0  0  0  0  0  0  0  0
  -10.9550   16.1006   22.0563 H   0  0  0  0  0  0  0  0  0  0  0  0
   -6.4350   17.0838   23.8316 H   0  0  0  0  0  0  0  0  0  0  0  0
  -10.4303   17.9442   20.6651 H   0  0  0  0  0  0  0  0  0  0  0  0
   -5.7245   19.8908   21.5520 H   0  0  0  0  0  0  0  0  0  0  0  0
   -5.6018   18.8467   22.9531 H   0  0  0  0  0  0  0  0  0  0  0  0
   -7.0126   19.9443   22.7674 H   0  0  0  0  0  0  0  0  0  0  0  0
   -8.2338   17.9121   25.9984 H   0  0  0  0  0  0  0  0  0  0  0  0
  1 10  1  0  0  0  0
  1  9  1  0  0  0  0
  1  2  1  0  0  0  0
  1 81  1  6  0  0  0
  2 34  1  0  0  0  0
  2  3  1  0  0  0  0
  3  5  1  0  0  0  0
  3  4  2  0  0  0  0
  5 24  1  0  0  0  0
  5  6  1  0  0  0  0
  6 17  1  0  0  0  0
  6  7  1  0  0  0  0
  6 44  1  1  0  0  0
  7  9  1  0  0  0  0
  7  8  1  0  0  0  0
  7 45  1  1  0  0  0
  8 46  1  0  0  0  0
  9 47  1  0  0  0  0
  9 48  1  0  0  0  0
 10 11  1  0  0  0  0
 10 49  1  0  0  0  0
 10 50  1  0  0  0  0
 11 16  2  0  0  0  0
 11 12  1  0  0  0  0
 12 13  2  0  0  0  0
 12 51  1  0  0  0  0
 13 14  1  0  0  0  0
 13 52  1  0  0  0  0
 14 15  2  0  0  0  0
 14 53  1  0  0  0  0
 15 16  1  0  0  0  0
 15 54  1  0  0  0  0
 16 55  1  0  0  0  0
 17 18  1  0  0  0  0
 17 56  1  0  0  0  0
 17 57  1  0  0  0  0
 18 23  2  0  0  0  0
 18 19  1  0  0  0  0
 19 20  2  0  0  0  0
 19 58  1  0  0  0  0
 20 21  1  0  0  0  0
 20 59  1  0  0  0  0
 21 22  2  0  0  0  0
 21 60  1  0  0  0  0
 22 23  1  0  0  0  0
 22 61  1  0  0  0  0
 23 62  1  0  0  0  0
 24 25  1  0  0  0  0
 24 63  1  0  0  0  0
 24 64  1  0  0  0  0
 25 30  2  0  0  0  0
 25 26  1  0  0  0  0
 26 27  2  0  0  0  0
 26 65  1  0  0  0  0
 27 32  1  0  0  0  0
 27 28  1  0  0  0  0
 28 31  1  0  0  0  0
 28 29  2  0  0  0  0
 29 30  1  0  0  0  0
 29 66  1  0  0  0  0
 30 67  1  0  0  0  0
 31 68  1  0  0  0  0
 32 33  1  0  0  0  0
 33 69  1  0  0  0  0
 33 70  1  0  0  0  0
 33 71  1  0  0  0  0
 34 35  1  0  0  0  0
 34 72  1  0  0  0  0
 34 73  1  0  0  0  0
 35 40  2  0  0  0  0
 35 36  1  0  0  0  0
 36 37  2  0  0  0  0
 36 74  1  0  0  0  0
 37 38  1  0  0  0  0
 37 75  1  0  0  0  0
 38 41  1  0  0  0  0
 38 39  2  0  0  0  0
 39 42  1  0  0  0  0
 39 40  1  0  0  0  0
 40 76  1  0  0  0  0
 41 77  1  0  0  0  0
 42 43  1  0  0  0  0
 43 78  1  0  0  0  0
 43 79  1  0  0  0  0
 43 80  1  0  0  0  0
M  CHG  1   1   1
M  END
$$$$
