ABN
 OpenBabel04041917103D

 18 18  0  0  0  0  0  0  0  0999 V2000
   25.8666   17.3970   57.6667 N   0  3  0  0  0  0  0  0  0  0  0  0
   24.4245   17.2619   57.3667 C   0  0  0  0  0  0  0  0  0  0  0  0
   23.7728   16.1400   58.1007 C   0  0  0  0  0  0  0  0  0  0  0  0
   24.3037   14.8461   58.0821 C   0  0  0  0  0  0  0  0  0  0  0  0
   23.6761   13.8107   58.7581 C   0  0  0  0  0  0  0  0  0  0  0  0
   22.4909   14.0492   59.4579 C   0  0  0  0  0  0  0  0  0  0  0  0
   21.9389   15.3270   59.4700 C   0  0  0  0  0  0  0  0  0  0  0  0
   22.5737   16.3670   58.7901 C   0  0  0  0  0  0  0  0  0  0  0  0
   26.2797   18.1799   57.1524 H   0  0  0  0  0  0  0  0  0  0  0  0
   26.0189   17.5563   58.6720 H   0  0  0  0  0  0  0  0  0  0  0  0
   24.3312   17.1105   56.2842 H   0  0  0  0  0  0  0  0  0  0  0  0
   23.9633   18.2173   57.6402 H   0  0  0  0  0  0  0  0  0  0  0  0
   25.2221   14.6358   57.5330 H   0  0  0  0  0  0  0  0  0  0  0  0
   24.0945   12.8111   58.7490 H   0  0  0  0  0  0  0  0  0  0  0  0
   21.9959   13.2381   59.9873 H   0  0  0  0  0  0  0  0  0  0  0  0
   21.0144   15.5109   60.0139 H   0  0  0  0  0  0  0  0  0  0  0  0
   22.1217   17.3548   58.8101 H   0  0  0  0  0  0  0  0  0  0  0  0
   26.3809   16.5446   57.4100 H   0  0  0  0  0  0  0  0  0  0  0  0
  1  2  1  0  0  0  0
  1  9  1  0  0  0  0
  1 10  1  0  0  0  0
  1 18  1  0  0  0  0
  2  3  1  0  0  0  0
  2 11  1  0  0  0  0
  2 12  1  0  0  0  0
  3  4  2  0  0  0  0
  3  8  1  0  0  0  0
  4  5  1  0  0  0  0
  4 13  1  0  0  0  0
  5  6  2  0  0  0  0
  5 14  1  0  0  0  0
  6  7  1  0  0  0  0
  6 15  1  0  0  0  0
  7  8  2  0  0  0  0
  7 16  1  0  0  0  0
  8 17  1  0  0  0  0
M  CHG  1   1   1
M  END
$$$$
