ACD
 OpenBabel04041913543D

 53 52  0  0  0  0  0  0  0  0999 V2000
  -45.2271   66.7387   -6.1204 C   0  0  0  0  0  0  0  0  0  0  0  0
  -45.7852   68.0032   -5.4698 C   0  0  0  0  0  0  0  0  0  0  0  0
  -45.3980   69.2834   -6.1999 C   0  0  0  0  0  0  0  0  0  0  0  0
  -46.2873   70.4185   -5.7340 C   0  0  0  0  0  0  0  0  0  0  0  0
  -46.0316   71.7116   -6.4630 C   0  0  0  0  0  0  0  0  0  0  0  0
  -46.9531   72.3491   -7.1784 C   0  0  0  0  0  0  0  0  0  0  0  0
  -48.3450   71.8292   -7.3528 C   0  0  0  0  0  0  0  0  0  0  0  0
  -49.3869   72.8789   -7.1725 C   0  0  0  0  0  0  0  0  0  0  0  0
  -50.4952   72.8977   -7.9446 C   0  0  0  0  0  0  0  0  0  0  0  0
  -50.7194   71.8823   -9.0150 C   0  0  0  0  0  0  0  0  0  0  0  0
  -51.9364   72.1346   -9.8449 C   0  0  0  0  0  0  0  0  0  0  0  0
  -52.1529   71.4904  -11.0032 C   0  0  0  0  0  0  0  0  0  0  0  0
  -51.1985   70.4657  -11.5344 C   0  0  0  0  0  0  0  0  0  0  0  0
  -51.8374   69.4517  -12.4367 C   0  0  0  0  0  0  0  0  0  0  0  0
  -51.3062   68.2321  -12.6282 C   0  0  0  0  0  0  0  0  0  0  0  0
  -50.0192   67.8117  -11.9856 C   0  0  0  0  0  0  0  0  0  0  0  0
  -50.2416   67.2114  -10.5944 C   0  0  0  0  0  0  0  0  0  0  0  0
  -48.9164   66.9291   -9.9008 C   0  0  0  0  0  0  0  0  0  0  0  0
  -48.1223   68.2055   -9.6388 C   0  0  0  0  0  0  0  0  0  0  0  0
  -46.7173   67.8734   -9.2087 C   0  0  0  0  0  0  0  0  0  0  0  0
  -44.0371   66.8115   -6.5343 O   0  0  0  0  0  0  0  0  0  0  0  0
  -46.0351   65.7670   -6.1586 O   0  0  0  0  0  0  0  0  0  0  0  0
  -45.4285   68.0586   -4.4384 H   0  0  0  0  0  0  0  0  0  0  0  0
  -46.8820   67.9131   -5.4252 H   0  0  0  0  0  0  0  0  0  0  0  0
  -45.5128   69.1510   -7.2706 H   0  0  0  0  0  0  0  0  0  0  0  0
  -44.3425   69.5286   -6.0303 H   0  0  0  0  0  0  0  0  0  0  0  0
  -46.1925   70.5950   -4.6632 H   0  0  0  0  0  0  0  0  0  0  0  0
  -47.3063   70.0626   -5.8869 H   0  0  0  0  0  0  0  0  0  0  0  0
  -45.0281   72.1296   -6.3992 H   0  0  0  0  0  0  0  0  0  0  0  0
  -46.6813   73.2570   -7.7143 H   0  0  0  0  0  0  0  0  0  0  0  0
  -48.6235   71.0612   -6.6338 H   0  0  0  0  0  0  0  0  0  0  0  0
  -48.3788   71.3469   -8.3326 H   0  0  0  0  0  0  0  0  0  0  0  0
  -49.2908   73.5661   -6.3425 H   0  0  0  0  0  0  0  0  0  0  0  0
  -51.2629   73.6225   -7.7299 H   0  0  0  0  0  0  0  0  0  0  0  0
  -50.8025   70.8829   -8.5599 H   0  0  0  0  0  0  0  0  0  0  0  0
  -49.8454   71.8904   -9.6835 H   0  0  0  0  0  0  0  0  0  0  0  0
  -52.6504   72.8767   -9.5070 H   0  0  0  0  0  0  0  0  0  0  0  0
  -53.0314   71.7333  -11.5914 H   0  0  0  0  0  0  0  0  0  0  0  0
  -50.7505   69.9468  -10.6818 H   0  0  0  0  0  0  0  0  0  0  0  0
  -50.3908   70.9716  -12.0753 H   0  0  0  0  0  0  0  0  0  0  0  0
  -52.7475   69.7267  -12.9597 H   0  0  0  0  0  0  0  0  0  0  0  0
  -51.7806   67.5214  -13.2971 H   0  0  0  0  0  0  0  0  0  0  0  0
  -49.3697   68.6898  -11.9383 H   0  0  0  0  0  0  0  0  0  0  0  0
  -49.4853   67.1037  -12.6285 H   0  0  0  0  0  0  0  0  0  0  0  0
  -50.8129   66.2825  -10.6855 H   0  0  0  0  0  0  0  0  0  0  0  0
  -50.8361   67.8830   -9.9602 H   0  0  0  0  0  0  0  0  0  0  0  0
  -48.3290   66.2387  -10.5186 H   0  0  0  0  0  0  0  0  0  0  0  0
  -49.1080   66.4232   -8.9467 H   0  0  0  0  0  0  0  0  0  0  0  0
  -48.6243   68.8116   -8.8766 H   0  0  0  0  0  0  0  0  0  0  0  0
  -48.0307   68.8270  -10.5310 H   0  0  0  0  0  0  0  0  0  0  0  0
  -46.1613   68.8026   -9.0812 H   0  0  0  0  0  0  0  0  0  0  0  0
  -46.1930   67.2830   -9.9659 H   0  0  0  0  0  0  0  0  0  0  0  0
  -46.7376   67.3096   -8.2770 H   0  0  0  0  0  0  0  0  0  0  0  0
  1 22  2  0  0  0  0
  1 21  1  0  0  0  0
  1  2  1  0  0  0  0
  2  3  1  0  0  0  0
  2 23  1  0  0  0  0
  2 24  1  0  0  0  0
  3  4  1  0  0  0  0
  3 25  1  0  0  0  0
  3 26  1  0  0  0  0
  4  5  1  0  0  0  0
  4 27  1  0  0  0  0
  4 28  1  0  0  0  0
  5  6  2  0  0  0  0
  5 29  1  0  0  0  0
  6  7  1  0  0  0  0
  6 30  1  0  0  0  0
  7  8  1  0  0  0  0
  7 31  1  0  0  0  0
  7 32  1  0  0  0  0
  8  9  2  0  0  0  0
  8 33  1  0  0  0  0
  9 10  1  0  0  0  0
  9 34  1  0  0  0  0
 10 11  1  0  0  0  0
 10 35  1  0  0  0  0
 10 36  1  0  0  0  0
 11 12  2  0  0  0  0
 11 37  1  0  0  0  0
 12 13  1  0  0  0  0
 12 38  1  0  0  0  0
 13 14  1  0  0  0  0
 13 39  1  0  0  0  0
 13 40  1  0  0  0  0
 14 15  2  0  0  0  0
 14 41  1  0  0  0  0
 15 16  1  0  0  0  0
 15 42  1  0  0  0  0
 16 17  1  0  0  0  0
 16 43  1  0  0  0  0
 16 44  1  0  0  0  0
 17 18  1  0  0  0  0
 17 45  1  0  0  0  0
 17 46  1  0  0  0  0
 18 19  1  0  0  0  0
 18 47  1  0  0  0  0
 18 48  1  0  0  0  0
 19 20  1  0  0  0  0
 19 49  1  0  0  0  0
 19 50  1  0  0  0  0
 20 51  1  0  0  0  0
 20 52  1  0  0  0  0
 20 53  1  0  0  0  0
M  END
$$$$
