ADE
 OpenBabel04041915563D

 15 16  0  0  0  0  0  0  0  0999 V2000
    4.5484   32.5073   -0.2309 N   0  0  0  0  0  0  0  0  0  0  0  0
    3.3155   32.6112   -0.6825 C   0  0  0  0  0  0  0  0  0  0  0  0
    2.8607   33.8940   -0.6210 N   0  3  0  0  0  0  0  0  0  0  0  0
    3.8667   34.6622   -0.1093 C   0  0  0  0  0  0  0  0  0  0  0  0
    4.0050   36.0043    0.1658 C   0  0  0  0  0  0  0  0  0  0  0  0
    3.0034   36.9141   -0.0712 N   0  0  0  0  0  0  0  0  0  0  0  0
    5.1851   36.4097    0.6632 N   0  0  0  0  0  0  0  0  0  0  0  0
    6.1491   35.4811    0.8582 C   0  0  0  0  0  0  0  0  0  0  0  0
    6.0981   34.1598    0.6235 N   0  0  0  0  0  0  0  0  0  0  0  0
    4.9029   33.7821    0.1235 C   0  0  0  0  0  0  0  0  0  0  0  0
    2.7096   31.8007   -1.0657 H   0  0  0  0  0  0  0  0  0  0  0  0
    1.9537   34.2281   -0.9143 H   0  0  0  0  0  0  0  0  0  0  0  0
    3.1777   37.8661    0.2144 H   0  0  0  0  0  0  0  0  0  0  0  0
    2.0800   36.6299   -0.3416 H   0  0  0  0  0  0  0  0  0  0  0  0
    7.0908   35.8517    1.2531 H   0  0  0  0  0  0  0  0  0  0  0  0
  1  2  1  0  0  0  0
  1 10  1  0  0  0  0
  2  3  2  0  0  0  0
  2 11  1  0  0  0  0
  3  4  1  0  0  0  0
  3 12  1  0  0  0  0
  4  5  2  0  0  0  0
  4 10  1  0  0  0  0
  5  6  1  0  0  0  0
  5  7  1  0  0  0  0
  6 13  1  0  0  0  0
  6 14  1  0  0  0  0
  7  8  2  0  0  0  0
  8  9  1  0  0  0  0
  8 15  1  0  0  0  0
  9 10  2  0  0  0  0
M  CHG  1   3   1
M  END
$$$$
