ADN
 OpenBabel04041916093D

 32 34  0  0  1  0  0  0  0  0999 V2000
   -0.6651  -80.3105 -146.6008 O   0  0  0  0  0  0  0  0  0  0  0  0
    0.6119  -80.8896 -146.3474 C   0  0  0  0  0  0  0  0  0  0  0  0
    1.6883  -79.9247 -146.8405 C   0  0  1  0  0  0  0  0  0  0  0  0
    1.6162  -78.6728 -146.1070 O   0  0  0  0  0  0  0  0  0  0  0  0
    3.0928  -80.4513 -146.6243 C   0  0  1  0  0  0  0  0  0  0  0  0
    3.8091  -80.1137 -147.8090 O   0  0  0  0  0  0  0  0  0  0  0  0
    3.6112  -79.7365 -145.3738 C   0  0  1  0  0  0  0  0  0  0  0  0
    4.8805  -79.1102 -145.5804 O   0  0  0  0  0  0  0  0  0  0  0  0
    2.4681  -78.7966 -144.9276 C   0  0  2  0  0  0  0  0  0  0  0  0
    1.6321  -79.2077 -143.7712 N   0  3  0  0  0  0  0  0  0  0  0  0
    0.5853  -78.4973 -143.2491 C   0  0  0  0  0  0  0  0  0  0  0  0
    0.0017  -79.0801 -142.2195 N   0  0  0  0  0  0  0  0  0  0  0  0
    0.6932  -80.2486 -142.0208 C   0  0  0  0  0  0  0  0  0  0  0  0
    0.5516  -81.2976 -141.0850 C   0  0  0  0  0  0  0  0  0  0  0  0
   -0.4155  -81.3363 -140.0916 N   0  0  0  0  0  0  0  0  0  0  0  0
    1.4234  -82.3415 -141.1681 N   0  0  0  0  0  0  0  0  0  0  0  0
    2.3734  -82.3261 -142.1310 C   0  0  0  0  0  0  0  0  0  0  0  0
    2.5776  -81.3844 -143.0659 N   0  0  0  0  0  0  0  0  0  0  0  0
    1.7274  -80.3428 -142.9752 C   0  0  0  0  0  0  0  0  0  0  0  0
   -0.6661  -79.4349 -146.1456 H   0  0  0  0  0  0  0  0  0  0  0  0
    0.6607  -81.8521 -146.8732 H   0  0  0  0  0  0  0  0  0  0  0  0
    0.6875  -81.1016 -145.2813 H   0  0  0  0  0  0  0  0  0  0  0  0
    1.4848  -79.7361 -147.9018 H   0  0  0  0  0  0  0  0  0  0  0  0
    3.0927  -81.5366 -146.4877 H   0  0  0  0  0  0  0  0  0  0  0  0
    4.7238  -80.4445 -147.6952 H   0  0  0  0  0  0  0  0  0  0  0  0
    3.8153  -80.4584 -144.5970 H   0  0  0  0  0  0  0  0  0  0  0  0
    4.8006  -78.4540 -146.2993 H   0  0  0  0  0  0  0  0  0  0  0  0
    2.8750  -77.8009 -144.6895 H   0  0  0  0  0  0  0  0  0  0  0  0
    0.2578  -77.5325 -143.6635 H   0  0  0  0  0  0  0  0  0  0  0  0
   -0.4377  -82.1388 -139.4637 H   0  0  0  0  0  0  0  0  0  0  0  0
   -1.0611  -80.5637 -140.0314 H   0  0  0  0  0  0  0  0  0  0  0  0
    3.0488  -83.1886 -142.1532 H   0  0  0  0  0  0  0  0  0  0  0  0
  1  2  1  0  0  0  0
  1 20  1  0  0  0  0
  2  3  1  0  0  0  0
  2 21  1  0  0  0  0
  2 22  1  0  0  0  0
  3  4  1  0  0  0  0
  3  5  1  0  0  0  0
  3 23  1  6  0  0  0
  4  9  1  0  0  0  0
  5  6  1  0  0  0  0
  5  7  1  0  0  0  0
  5 24  1  1  0  0  0
  6 25  1  0  0  0  0
  7  8  1  0  0  0  0
  7  9  1  0  0  0  0
  7 26  1  1  0  0  0
  8 27  1  0  0  0  0
  9 10  1  0  0  0  0
  9 28  1  1  0  0  0
 10 11  2  0  0  0  0
 10 19  1  0  0  0  0
 11 12  1  0  0  0  0
 11 29  1  0  0  0  0
 12 13  1  0  0  0  0
 13 14  2  0  0  0  0
 13 19  1  0  0  0  0
 14 15  1  0  0  0  0
 14 16  1  0  0  0  0
 15 30  1  0  0  0  0
 15 31  1  0  0  0  0
 16 17  2  0  0  0  0
 17 18  1  0  0  0  0
 17 32  1  0  0  0  0
 18 19  2  0  0  0  0
M  CHG  1  10   1
M  END
$$$$
