ADN
 OpenBabel04041914183D

 32 34  0  0  1  0  0  0  0  0999 V2000
    3.0206    7.7906   15.4378 O   0  0  0  0  0  0  0  0  0  0  0  0
    2.7422    9.1256   15.0258 C   0  0  0  0  0  0  0  0  0  0  0  0
    1.4335    9.2155   14.2375 C   0  0  1  0  0  0  0  0  0  0  0  0
    0.3394    8.6813   14.9987 O   0  0  0  0  0  0  0  0  0  0  0  0
    1.0645   10.6541   13.8932 C   0  0  1  0  0  0  0  0  0  0  0  0
    1.7064   11.1041   12.7091 O   0  0  0  0  0  0  0  0  0  0  0  0
   -0.4588   10.5815   13.7843 C   0  0  1  0  0  0  0  0  0  0  0  0
   -0.8071   10.1530   12.4573 O   0  0  0  0  0  0  0  0  0  0  0  0
   -0.8132    9.5431   14.8587 C   0  0  2  0  0  0  0  0  0  0  0  0
   -1.1487   10.0619   16.1720 N   0  3  0  0  0  0  0  0  0  0  0  0
   -0.7356   11.2464   16.7286 C   0  0  0  0  0  0  0  0  0  0  0  0
   -1.2555   11.4363   17.9314 N   0  0  0  0  0  0  0  0  0  0  0  0
   -2.0255   10.3136   18.1588 C   0  0  0  0  0  0  0  0  0  0  0  0
   -2.8350    9.9349   19.2418 C   0  0  0  0  0  0  0  0  0  0  0  0
   -3.0183   10.7289   20.3544 N   0  0  0  0  0  0  0  0  0  0  0  0
   -3.4800    8.7493   19.1797 N   0  0  0  0  0  0  0  0  0  0  0  0
   -3.3382    8.0038   18.0623 C   0  0  0  0  0  0  0  0  0  0  0  0
   -2.6192    8.2768   16.9572 N   0  0  0  0  0  0  0  0  0  0  0  0
   -1.9768    9.4513   17.0766 C   0  0  0  0  0  0  0  0  0  0  0  0
    2.9443    7.2055   14.6663 H   0  0  0  0  0  0  0  0  0  0  0  0
    3.5847    9.4767   14.4219 H   0  0  0  0  0  0  0  0  0  0  0  0
    2.6887    9.7338   15.9338 H   0  0  0  0  0  0  0  0  0  0  0  0
    1.5226    8.6050   13.3305 H   0  0  0  0  0  0  0  0  0  0  0  0
    1.3541   11.3260   14.7070 H   0  0  0  0  0  0  0  0  0  0  0  0
    1.2357   10.7101   11.9513 H   0  0  0  0  0  0  0  0  0  0  0  0
   -0.9384   11.5506   13.9333 H   0  0  0  0  0  0  0  0  0  0  0  0
   -0.5949    9.2053   12.3540 H   0  0  0  0  0  0  0  0  0  0  0  0
   -1.6555    8.9212   14.5245 H   0  0  0  0  0  0  0  0  0  0  0  0
   -0.0787   11.9531   16.2468 H   0  0  0  0  0  0  0  0  0  0  0  0
   -3.5174   10.3329   21.1358 H   0  0  0  0  0  0  0  0  0  0  0  0
   -2.4494   11.5585   20.4511 H   0  0  0  0  0  0  0  0  0  0  0  0
   -3.8809    7.0605   18.0572 H   0  0  0  0  0  0  0  0  0  0  0  0
  1  2  1  0  0  0  0
  1 20  1  0  0  0  0
  2  3  1  0  0  0  0
  2 21  1  0  0  0  0
  2 22  1  0  0  0  0
  3  4  1  0  0  0  0
  3  5  1  0  0  0  0
  3 23  1  6  0  0  0
  4  9  1  0  0  0  0
  5  6  1  0  0  0  0
  5  7  1  0  0  0  0
  5 24  1  1  0  0  0
  6 25  1  0  0  0  0
  7  8  1  0  0  0  0
  7  9  1  0  0  0  0
  7 26  1  1  0  0  0
  8 27  1  0  0  0  0
  9 10  1  0  0  0  0
  9 28  1  6  0  0  0
 10 11  2  0  0  0  0
 10 19  1  0  0  0  0
 11 12  1  0  0  0  0
 11 29  1  0  0  0  0
 12 13  1  0  0  0  0
 13 14  2  0  0  0  0
 13 19  1  0  0  0  0
 14 15  1  0  0  0  0
 14 16  1  0  0  0  0
 15 30  1  0  0  0  0
 15 31  1  0  0  0  0
 16 17  2  0  0  0  0
 17 18  1  0  0  0  0
 17 32  1  0  0  0  0
 18 19  2  0  0  0  0
M  CHG  1  10   1
M  END
$$$$
