ADP
 OpenBabel04041917053D

 39 41  0  0  1  0  0  0  0  0999 V2000
   -8.7142   96.9395   16.1731 P   0  0  0  0  0  0  0  0  0  0  0  0
   -8.6407   97.6465   14.8204 O   0  0  0  0  0  0  0  0  0  0  0  0
   -7.6998   95.7960   16.2579 O   0  0  0  0  0  0  0  0  0  0  0  0
   -8.6625   97.8203   17.4196 O   0  0  0  0  0  0  0  0  0  0  0  0
  -11.6248   96.8884   16.1217 P   0  0  1  0  0  0  0  0  0  0  0  0
  -11.6985   98.3346   15.7005 O   0  0  0  0  0  0  0  0  0  0  0  0
  -12.5695   95.8938   15.4513 O   0  0  0  0  0  0  0  0  0  0  0  0
  -10.1623   96.2314   16.2367 O   0  0  0  0  0  0  0  0  0  0  0  0
  -12.0725   96.8420   17.7014 O   0  0  0  0  0  0  0  0  0  0  0  0
  -11.7885   97.9890   18.4869 C   0  0  0  0  0  0  0  0  0  0  0  0
  -11.4429   97.5616   19.9144 C   0  0  1  0  0  0  0  0  0  0  0  0
  -12.5738   96.8692   20.5072 O   0  0  0  0  0  0  0  0  0  0  0  0
  -10.2588   96.6141   19.9854 C   0  0  1  0  0  0  0  0  0  0  0  0
   -9.0007   97.3215   20.0070 O   0  0  0  0  0  0  0  0  0  0  0  0
  -10.5203   95.8867   21.3040 C   0  0  1  0  0  0  0  0  0  0  0  0
  -10.0456   96.6398   22.4462 O   0  0  0  0  0  0  0  0  0  0  0  0
  -12.0391   95.7995   21.3334 C   0  0  2  0  0  0  0  0  0  0  0  0
  -12.5746   94.5189   20.9129 N   0  3  0  0  0  0  0  0  0  0  0  0
  -12.6910   94.0290   19.6436 C   0  0  0  0  0  0  0  0  0  0  0  0
  -13.1426   92.7989   19.6122 N   0  0  0  0  0  0  0  0  0  0  0  0
  -13.3268   92.4679   20.9358 C   0  0  0  0  0  0  0  0  0  0  0  0
  -13.8037   91.2900   21.5458 C   0  0  0  0  0  0  0  0  0  0  0  0
  -14.2313   90.1978   20.8293 N   0  0  0  0  0  0  0  0  0  0  0  0
  -13.8590   91.2507   22.8918 N   0  0  0  0  0  0  0  0  0  0  0  0
  -13.4778   92.3475   23.5737 C   0  0  0  0  0  0  0  0  0  0  0  0
  -13.0169   93.5297   23.1041 N   0  0  0  0  0  0  0  0  0  0  0  0
  -12.9747   93.5231   21.7537 C   0  0  0  0  0  0  0  0  0  0  0  0
  -12.6940   98.5927   18.5103 H   0  0  0  0  0  0  0  0  0  0  0  0
  -10.9804   98.5870   18.0663 H   0  0  0  0  0  0  0  0  0  0  0  0
  -11.2553   98.4582   20.5139 H   0  0  0  0  0  0  0  0  0  0  0  0
  -10.2480   95.8791   19.1745 H   0  0  0  0  0  0  0  0  0  0  0  0
   -8.8717   97.5917   19.0339 H   0  0  0  0  0  0  0  0  0  0  0  0
  -10.0287   94.9148   21.3635 H   0  0  0  0  0  0  0  0  0  0  0  0
   -9.1311   96.8789   22.1931 H   0  0  0  0  0  0  0  0  0  0  0  0
  -12.4349   95.9976   22.3488 H   0  0  0  0  0  0  0  0  0  0  0  0
  -12.4384   94.6359   18.7577 H   0  0  0  0  0  0  0  0  0  0  0  0
  -14.4310   89.3458   21.3387 H   0  0  0  0  0  0  0  0  0  0  0  0
  -14.0523   90.2013   19.8233 H   0  0  0  0  0  0  0  0  0  0  0  0
  -13.5517   92.2789   24.6526 H   0  0  0  0  0  0  0  0  0  0  0  0
  1  2  2  0  0  0  0
  1  3  1  0  0  0  0
  1  4  1  0  0  0  0
  1  8  1  0  0  0  0
  5  6  2  6  0  0  0
  5  7  1  0  0  0  0
  5  8  1  0  0  0  0
  5  9  1  0  0  0  0
  9 10  1  0  0  0  0
 10 11  1  0  0  0  0
 10 28  1  0  0  0  0
 10 29  1  0  0  0  0
 11 12  1  0  0  0  0
 11 13  1  0  0  0  0
 11 30  1  1  0  0  0
 12 17  1  0  0  0  0
 13 14  1  0  0  0  0
 13 15  1  0  0  0  0
 13 31  1  6  0  0  0
 14 32  1  0  0  0  0
 15 16  1  0  0  0  0
 15 17  1  0  0  0  0
 15 33  1  6  0  0  0
 16 34  1  0  0  0  0
 17 18  1  0  0  0  0
 17 35  1  1  0  0  0
 18 19  2  0  0  0  0
 18 27  1  0  0  0  0
 19 20  1  0  0  0  0
 19 36  1  0  0  0  0
 20 21  1  0  0  0  0
 21 22  2  0  0  0  0
 21 27  1  0  0  0  0
 22 23  1  0  0  0  0
 22 24  1  0  0  0  0
 23 37  1  0  0  0  0
 23 38  1  0  0  0  0
 24 25  2  0  0  0  0
 25 26  1  0  0  0  0
 25 39  1  0  0  0  0
 26 27  2  0  0  0  0
M  CHG  1  18   1
M  END
$$$$
