ADP
 OpenBabel04041913583D

 39 41  0  0  1  0  0  0  0  0999 V2000
   17.6544   29.5176   16.4729 P   0  0  0  0  0  0  0  0  0  0  0  0
   17.2816   29.9280   17.8940 O   0  0  0  0  0  0  0  0  0  0  0  0
   18.7651   28.4752   16.4167 O   0  0  0  0  0  0  0  0  0  0  0  0
   16.4296   29.1247   15.6342 O   0  0  0  0  0  0  0  0  0  0  0  0
   19.4905   31.3963   15.1317 P   0  0  1  0  0  0  0  0  0  0  0  0
   20.6103   30.3950   15.1835 O   0  0  0  0  0  0  0  0  0  0  0  0
   19.2711   32.1830   13.8378 O   0  0  0  0  0  0  0  0  0  0  0  0
   18.1153   30.9083   15.7787 O   0  0  0  0  0  0  0  0  0  0  0  0
   19.8222   32.5618   16.2502 O   0  0  0  0  0  0  0  0  0  0  0  0
   18.9663   33.7031   16.2331 C   0  0  0  0  0  0  0  0  0  0  0  0
   19.3572   34.5559   17.4097 C   0  0  1  0  0  0  0  0  0  0  0  0
   20.6505   35.1162   16.9970 O   0  0  0  0  0  0  0  0  0  0  0  0
   18.4825   35.7574   17.7737 C   0  0  1  0  0  0  0  0  0  0  0  0
   18.6276   35.9419   19.2053 O   0  0  0  0  0  0  0  0  0  0  0  0
   19.1439   36.9267   17.0515 C   0  0  1  0  0  0  0  0  0  0  0  0
   18.9096   38.1945   17.6752 O   0  0  0  0  0  0  0  0  0  0  0  0
   20.5929   36.5153   17.1969 C   0  0  2  0  0  0  0  0  0  0  0  0
   21.4930   37.1932   16.2885 N   0  3  0  0  0  0  0  0  0  0  0  0
   21.5202   37.2894   14.9255 C   0  0  0  0  0  0  0  0  0  0  0  0
   22.4140   38.1702   14.5003 N   0  0  0  0  0  0  0  0  0  0  0  0
   23.0066   38.6223   15.6412 C   0  0  0  0  0  0  0  0  0  0  0  0
   23.9958   39.5427   15.8996 C   0  0  0  0  0  0  0  0  0  0  0  0
   24.5552   40.2255   14.8351 N   0  0  0  0  0  0  0  0  0  0  0  0
   24.4037   39.8127   17.1622 N   0  0  0  0  0  0  0  0  0  0  0  0
   23.7784   39.1323   18.1466 C   0  0  0  0  0  0  0  0  0  0  0  0
   22.7839   38.2308   18.0349 N   0  0  0  0  0  0  0  0  0  0  0  0
   22.4570   38.0182   16.7653 C   0  0  0  0  0  0  0  0  0  0  0  0
   17.9120   33.4179   16.2954 H   0  0  0  0  0  0  0  0  0  0  0  0
   19.1670   34.2500   15.3061 H   0  0  0  0  0  0  0  0  0  0  0  0
   19.5118   33.9244   18.3003 H   0  0  0  0  0  0  0  0  0  0  0  0
   17.4182   35.6693   17.5372 H   0  0  0  0  0  0  0  0  0  0  0  0
   18.1082   36.7102   19.4939 H   0  0  0  0  0  0  0  0  0  0  0  0
   18.8362   36.9635   15.9952 H   0  0  0  0  0  0  0  0  0  0  0  0
   17.9521   38.3377   17.7124 H   0  0  0  0  0  0  0  0  0  0  0  0
   20.9237   36.6979   18.2292 H   0  0  0  0  0  0  0  0  0  0  0  0
   20.8783   36.7278   14.2562 H   0  0  0  0  0  0  0  0  0  0  0  0
   25.2794   40.8868   14.9985 H   0  0  0  0  0  0  0  0  0  0  0  0
   24.1894   40.0097   13.9185 H   0  0  0  0  0  0  0  0  0  0  0  0
   24.1029   39.3465   19.1490 H   0  0  0  0  0  0  0  0  0  0  0  0
  1  2  2  0  0  0  0
  1  3  1  0  0  0  0
  1  4  1  0  0  0  0
  1  8  1  0  0  0  0
  5  6  2  6  0  0  0
  5  7  1  0  0  0  0
  5  8  1  0  0  0  0
  5  9  1  0  0  0  0
  9 10  1  0  0  0  0
 10 11  1  0  0  0  0
 10 28  1  0  0  0  0
 10 29  1  0  0  0  0
 11 12  1  0  0  0  0
 11 13  1  0  0  0  0
 11 30  1  1  0  0  0
 12 17  1  0  0  0  0
 13 14  1  0  0  0  0
 13 15  1  0  0  0  0
 13 31  1  6  0  0  0
 14 32  1  0  0  0  0
 15 16  1  0  0  0  0
 15 17  1  0  0  0  0
 15 33  1  6  0  0  0
 16 34  1  0  0  0  0
 17 18  1  0  0  0  0
 17 35  1  1  0  0  0
 18 19  2  0  0  0  0
 18 27  1  0  0  0  0
 19 20  1  0  0  0  0
 19 36  1  0  0  0  0
 20 21  1  0  0  0  0
 21 22  2  0  0  0  0
 21 27  1  0  0  0  0
 22 23  1  0  0  0  0
 22 24  1  0  0  0  0
 23 37  1  0  0  0  0
 23 38  1  0  0  0  0
 24 25  2  0  0  0  0
 25 26  1  0  0  0  0
 25 39  1  0  0  0  0
 26 27  2  0  0  0  0
M  CHG  1  18   1
M  END
$$$$
