ADP
 OpenBabel04041913583D

 39 41  0  0  1  0  0  0  0  0999 V2000
   10.5045   -4.9628   -3.8280 P   0  0  0  0  0  0  0  0  0  0  0  0
    9.7031   -4.1003   -4.8124 O   0  0  0  0  0  0  0  0  0  0  0  0
   11.7350   -5.5760   -4.4934 O   0  0  0  0  0  0  0  0  0  0  0  0
    9.6025   -5.9419   -3.0853 O   0  0  0  0  0  0  0  0  0  0  0  0
   11.8408   -4.0105   -1.3232 P   0  0  1  0  0  0  0  0  0  0  0  0
   11.0419   -3.3196   -0.2235 O   0  0  0  0  0  0  0  0  0  0  0  0
   12.5460   -5.3115   -1.0206 O   0  0  0  0  0  0  0  0  0  0  0  0
   11.0633   -3.9093   -2.7371 O   0  0  0  0  0  0  0  0  0  0  0  0
   13.0577   -2.9616   -1.6500 O   0  0  0  0  0  0  0  0  0  0  0  0
   12.7033   -1.6045   -1.8283 C   0  0  0  0  0  0  0  0  0  0  0  0
   13.2146   -1.0703   -3.1692 C   0  0  1  0  0  0  0  0  0  0  0  0
   14.6378   -0.7772   -3.0471 O   0  0  0  0  0  0  0  0  0  0  0  0
   13.0482   -1.9900   -4.3843 C   0  0  1  0  0  0  0  0  0  0  0  0
   11.8888   -1.7497   -5.1814 O   0  0  0  0  0  0  0  0  0  0  0  0
   14.2265   -1.6229   -5.2613 C   0  0  1  0  0  0  0  0  0  0  0  0
   13.8548   -0.5475   -6.1606 O   0  0  0  0  0  0  0  0  0  0  0  0
   15.2776   -1.1565   -4.2788 C   0  0  2  0  0  0  0  0  0  0  0  0
   16.2940   -2.1641   -4.0195 N   0  3  0  0  0  0  0  0  0  0  0  0
   16.3687   -3.0674   -3.0087 C   0  0  0  0  0  0  0  0  0  0  0  0
   17.4619   -3.8050   -3.0840 N   0  0  0  0  0  0  0  0  0  0  0  0
   18.0787   -3.4028   -4.2377 C   0  0  0  0  0  0  0  0  0  0  0  0
   19.2692   -3.8224   -4.8583 C   0  0  0  0  0  0  0  0  0  0  0  0
   20.1074   -4.7991   -4.3389 N   0  0  0  0  0  0  0  0  0  0  0  0
   19.6286   -3.2142   -6.0300 N   0  0  0  0  0  0  0  0  0  0  0  0
   18.8394   -2.2283   -6.4898 C   0  0  0  0  0  0  0  0  0  0  0  0
   17.7174   -1.7069   -5.9622 N   0  0  0  0  0  0  0  0  0  0  0  0
   17.3743   -2.3668   -4.8352 C   0  0  0  0  0  0  0  0  0  0  0  0
   13.1835   -1.0532   -1.0105 H   0  0  0  0  0  0  0  0  0  0  0  0
   11.6243   -1.4500   -1.7451 H   0  0  0  0  0  0  0  0  0  0  0  0
   12.7227   -0.1046   -3.3449 H   0  0  0  0  0  0  0  0  0  0  0  0
   13.1246   -3.0495   -4.1114 H   0  0  0  0  0  0  0  0  0  0  0  0
   11.5926   -0.8353   -5.0629 H   0  0  0  0  0  0  0  0  0  0  0  0
   14.5475   -2.4527   -5.9043 H   0  0  0  0  0  0  0  0  0  0  0  0
   13.0834   -0.9422   -6.6287 H   0  0  0  0  0  0  0  0  0  0  0  0
   15.7995   -0.2680   -4.6430 H   0  0  0  0  0  0  0  0  0  0  0  0
   15.5765   -3.1723   -2.2542 H   0  0  0  0  0  0  0  0  0  0  0  0
   20.6983   -5.2310   -5.0478 H   0  0  0  0  0  0  0  0  0  0  0  0
   19.6128   -5.4189   -3.6935 H   0  0  0  0  0  0  0  0  0  0  0  0
   19.1837   -1.7537   -7.4113 H   0  0  0  0  0  0  0  0  0  0  0  0
  1  2  2  0  0  0  0
  1  3  1  0  0  0  0
  1  4  1  0  0  0  0
  1  8  1  0  0  0  0
  5  6  2  1  0  0  0
  5  7  1  0  0  0  0
  5  8  1  0  0  0  0
  5  9  1  0  0  0  0
  9 10  1  0  0  0  0
 10 11  1  0  0  0  0
 10 28  1  0  0  0  0
 10 29  1  0  0  0  0
 11 12  1  0  0  0  0
 11 13  1  0  0  0  0
 11 30  1  6  0  0  0
 12 17  1  0  0  0  0
 13 14  1  0  0  0  0
 13 15  1  0  0  0  0
 13 31  1  1  0  0  0
 14 32  1  0  0  0  0
 15 16  1  0  0  0  0
 15 17  1  0  0  0  0
 15 33  1  6  0  0  0
 16 34  1  0  0  0  0
 17 18  1  0  0  0  0
 17 35  1  6  0  0  0
 18 19  2  0  0  0  0
 18 27  1  0  0  0  0
 19 20  1  0  0  0  0
 19 36  1  0  0  0  0
 20 21  1  0  0  0  0
 21 22  2  0  0  0  0
 21 27  1  0  0  0  0
 22 23  1  0  0  0  0
 22 24  1  0  0  0  0
 23 37  1  0  0  0  0
 23 38  1  0  0  0  0
 24 25  2  0  0  0  0
 25 26  1  0  0  0  0
 25 39  1  0  0  0  0
 26 27  2  0  0  0  0
M  CHG  1  18   1
M  END
$$$$
