AGB
 OpenBabel04041914273D

 53 56  0  0  1  0  0  0  0  0999 V2000
   22.6311   11.2873   27.1103 C   0  0  1  0  0  0  0  0  0  0  0  0
   22.8083   12.7372   27.5926 C   0  0  0  0  0  0  0  0  0  0  0  0
   23.9931   10.5509   27.1631 C   0  0  0  0  0  0  0  0  0  0  0  0
   21.6261   10.5756   28.0345 C   0  0  0  0  0  0  0  0  0  0  0  0
   22.3443   12.0274   29.9509 C   0  0  0  0  0  0  0  0  0  0  0  0
   23.3471   12.7430   29.0316 C   0  0  1  0  0  0  0  0  0  0  0  0
   22.1471   10.5777   29.4814 C   0  0  2  0  0  0  0  0  0  0  0  0
   24.6928   12.0000   29.0730 C   0  0  0  0  0  0  0  0  0  0  0  0
   23.4943    9.8418   29.5340 C   0  0  0  0  0  0  0  0  0  0  0  0
   24.5430   10.5291   28.6250 C   0  0  1  0  0  0  0  0  0  0  0  0
   27.2403    8.0715   29.0147 N   0  0  0  0  0  0  0  0  0  0  0  0
   26.0579    8.5313   28.5354 C   0  0  0  0  0  0  0  0  0  0  0  0
   25.8476    9.8642   28.7714 N   0  0  0  0  0  0  0  0  0  0  0  0
   25.2402    7.8067   27.9604 O   0  0  0  0  0  0  0  0  0  0  0  0
   27.5980    6.6777   28.8387 C   0  0  0  0  0  0  0  0  0  0  0  0
   29.7697    5.5148   29.3652 C   0  0  0  0  0  0  0  0  0  0  0  0
   29.0840    6.5292   28.6881 C   0  0  0  0  0  0  0  0  0  0  0  0
   29.7723    7.3524   27.7888 C   0  0  0  0  0  0  0  0  0  0  0  0
   31.1174    7.1472   27.5479 C   0  0  0  0  0  0  0  0  0  0  0  0
   31.7810    6.0915   28.1743 C   0  0  0  0  0  0  0  0  0  0  0  0
   31.1062    5.2667   29.0731 C   0  0  0  0  0  0  0  0  0  0  0  0
   33.0809    5.8448   27.7640 N   0  0  0  0  0  0  0  0  0  0  0  0
   33.2523    3.4347   27.5626 N   0  0  0  0  0  0  0  0  0  0  0  0
   33.7606    4.6723   27.5410 C   0  0  0  0  0  0  0  0  0  0  0  0
   35.0445    4.8200   27.2353 N   0  0  0  0  0  0  0  0  0  0  0  0
   22.2463   11.2898   26.0834 H   0  0  0  0  0  0  0  0  0  0  0  0
   21.8495   13.2708   27.5498 H   0  0  0  0  0  0  0  0  0  0  0  0
   23.4964   13.2745   26.9288 H   0  0  0  0  0  0  0  0  0  0  0  0
   24.7063   11.0512   26.4954 H   0  0  0  0  0  0  0  0  0  0  0  0
   23.8619    9.5364   26.7696 H   0  0  0  0  0  0  0  0  0  0  0  0
   21.4662    9.5461   27.6918 H   0  0  0  0  0  0  0  0  0  0  0  0
   20.6515   11.0784   27.9905 H   0  0  0  0  0  0  0  0  0  0  0  0
   21.3834   12.5568   29.9452 H   0  0  0  0  0  0  0  0  0  0  0  0
   22.7076   12.0424   30.9859 H   0  0  0  0  0  0  0  0  0  0  0  0
   23.4867   13.7760   29.3690 H   0  0  0  0  0  0  0  0  0  0  0  0
   21.4277   10.0717   30.1351 H   0  0  0  0  0  0  0  0  0  0  0  0
   25.1021   12.0330   30.0911 H   0  0  0  0  0  0  0  0  0  0  0  0
   25.4189   12.5144   28.4299 H   0  0  0  0  0  0  0  0  0  0  0  0
   23.8675    9.8154   30.5659 H   0  0  0  0  0  0  0  0  0  0  0  0
   23.3423    8.7966   29.2392 H   0  0  0  0  0  0  0  0  0  0  0  0
   27.7440    8.6075   29.7049 H   0  0  0  0  0  0  0  0  0  0  0  0
   26.6675   10.4318   28.9190 H   0  0  0  0  0  0  0  0  0  0  0  0
   27.1154    6.2786   27.9396 H   0  0  0  0  0  0  0  0  0  0  0  0
   27.2279    6.0990   29.6918 H   0  0  0  0  0  0  0  0  0  0  0  0
   29.2640    4.8971   30.1126 H   0  0  0  0  0  0  0  0  0  0  0  0
   29.2548    8.1411   27.2428 H   0  0  0  0  0  0  0  0  0  0  0  0
   31.6361    7.7653   26.8179 H   0  0  0  0  0  0  0  0  0  0  0  0
   31.6143    4.4436   29.5678 H   0  0  0  0  0  0  0  0  0  0  0  0
   33.5726    6.6763   27.4700 H   0  0  0  0  0  0  0  0  0  0  0  0
   33.8411    2.6378   27.3707 H   0  0  0  0  0  0  0  0  0  0  0  0
   35.4286    5.7657   27.2228 H   0  0  0  0  0  0  0  0  0  0  0  0
   35.6564    4.0446   27.0739 H   0  0  0  0  0  0  0  0  0  0  0  0
   32.2604    3.2666   27.6919 H   0  0  0  0  0  0  0  0  0  0  0  0
  1  4  1  0  0  0  0
  1  3  1  0  0  0  0
  1  2  1  0  0  0  0
  1 26  1  6  0  0  0
  2  6  1  0  0  0  0
  2 27  1  0  0  0  0
  2 28  1  0  0  0  0
  3 10  1  0  0  0  0
  3 29  1  0  0  0  0
  3 30  1  0  0  0  0
  4  7  1  0  0  0  0
  4 31  1  0  0  0  0
  4 32  1  0  0  0  0
  5  6  1  0  0  0  0
  5  7  1  0  0  0  0
  5 33  1  0  0  0  0
  5 34  1  0  0  0  0
  6  8  1  0  0  0  0
  6 35  1  1  0  0  0
  7  9  1  0  0  0  0
  7 36  1  1  0  0  0
  8 10  1  0  0  0  0
  8 37  1  0  0  0  0
  8 38  1  0  0  0  0
  9 10  1  0  0  0  0
  9 39  1  0  0  0  0
  9 40  1  0  0  0  0
 10 13  1  1  0  0  0
 11 12  1  0  0  0  0
 11 15  1  0  0  0  0
 11 41  1  0  0  0  0
 12 13  1  0  0  0  0
 12 14  2  0  0  0  0
 13 42  1  0  0  0  0
 15 17  1  0  0  0  0
 15 43  1  0  0  0  0
 15 44  1  0  0  0  0
 16 17  2  0  0  0  0
 16 21  1  0  0  0  0
 16 45  1  0  0  0  0
 17 18  1  0  0  0  0
 18 19  2  0  0  0  0
 18 46  1  0  0  0  0
 19 20  1  0  0  0  0
 19 47  1  0  0  0  0
 20 22  1  0  0  0  0
 20 21  2  0  0  0  0
 21 48  1  0  0  0  0
 22 24  1  0  0  0  0
 22 49  1  0  0  0  0
 23 24  2  0  0  0  0
 23 50  1  0  0  0  0
 23 53  1  0  0  0  0
 24 25  1  0  0  0  0
 25 51  1  0  0  0  0
 25 52  1  0  0  0  0
M  END
$$$$
