AH1
 OpenBabel04041913573D

 74 78  0  0  1  0  0  0  0  0999 V2000
   11.7306   23.3423    5.9851 N   0  0  0  0  0  0  0  0  0  0  0  0
   12.2198   22.0092    6.0690 C   0  0  0  0  0  0  0  0  0  0  0  0
   13.5244   21.7593    5.5836 N   0  0  0  0  0  0  0  0  0  0  0  0
   14.6288   22.6832    5.7521 C   0  0  1  0  0  0  0  0  0  0  0  0
   14.5516   23.8024    4.6967 C   0  0  1  0  0  0  0  0  0  0  0  0
   13.4158   24.8199    4.9425 C   0  0  2  0  0  0  0  0  0  0  0  0
   11.9971   24.2210    4.8393 C   0  0  1  0  0  0  0  0  0  0  0  0
   10.4499   23.5797    6.6615 C   0  0  0  0  0  0  0  0  0  0  0  0
   10.2923   24.9565    7.2658 C   0  0  0  0  0  0  0  0  0  0  0  0
    9.1743   25.7441    6.9695 C   0  0  0  0  0  0  0  0  0  0  0  0
    9.0355   27.0170    7.5233 C   0  0  0  0  0  0  0  0  0  0  0  0
   10.0062   27.5186    8.3885 C   0  0  0  0  0  0  0  0  0  0  0  0
   11.1079   26.7275    8.6990 C   0  0  0  0  0  0  0  0  0  0  0  0
   11.2503   25.4521    8.1597 C   0  0  0  0  0  0  0  0  0  0  0  0
   11.5483   21.1246    6.5002 O   0  0  0  0  0  0  0  0  0  0  0  0
   13.9224   20.3496    5.4983 C   0  0  0  0  0  0  0  0  0  0  0  0
   14.8368   19.9665    4.3443 C   0  0  0  0  0  0  0  0  0  0  0  0
   16.0919   19.3776    4.6036 C   0  0  0  0  0  0  0  0  0  0  0  0
   16.8906   18.9325    3.5429 C   0  0  0  0  0  0  0  0  0  0  0  0
   16.4534   19.0635    2.2218 C   0  0  0  0  0  0  0  0  0  0  0  0
   15.2179   19.6556    1.9541 C   0  0  0  0  0  0  0  0  0  0  0  0
   14.4121   20.0999    3.0091 C   0  0  0  0  0  0  0  0  0  0  0  0
   14.6365   23.3112    7.1627 C   0  0  0  0  0  0  0  0  0  0  0  0
   14.6781   22.4624    8.3227 O   0  0  0  0  0  0  0  0  0  0  0  0
   15.8134   21.7693    8.6389 C   0  0  0  0  0  0  0  0  0  0  0  0
   15.6566   20.6256    9.4509 C   0  0  0  0  0  0  0  0  0  0  0  0
   16.7823   19.8718    9.8102 C   0  0  0  0  0  0  0  0  0  0  0  0
   18.0522   20.2696    9.3683 C   0  0  0  0  0  0  0  0  0  0  0  0
   18.2115   21.4068    8.5639 C   0  0  0  0  0  0  0  0  0  0  0  0
   17.0839   22.1568    8.2111 C   0  0  0  0  0  0  0  0  0  0  0  0
   15.7921   24.5374    4.7495 O   0  0  0  0  0  0  0  0  0  0  0  0
   13.5334   25.8654    3.9565 O   0  0  0  0  0  0  0  0  0  0  0  0
   11.8043   23.4715    3.4916 C   0  0  0  0  0  0  0  0  0  0  0  0
   10.4506   23.1255    3.1166 O   0  0  0  0  0  0  0  0  0  0  0  0
    9.5507   24.1061    2.7599 C   0  0  0  0  0  0  0  0  0  0  0  0
    9.9093   25.3368    2.2309 C   0  0  0  0  0  0  0  0  0  0  0  0
    8.9424   26.3002    1.8847 C   0  0  0  0  0  0  0  0  0  0  0  0
    7.5814   26.0384    2.0612 C   0  0  0  0  0  0  0  0  0  0  0  0
    7.1953   24.8014    2.5894 C   0  0  0  0  0  0  0  0  0  0  0  0
    8.1735   23.8345    2.9205 C   0  0  0  0  0  0  0  0  0  0  0  0
   15.5752   22.1299    5.6332 H   0  0  0  0  0  0  0  0  0  0  0  0
   14.4661   23.3895    3.6801 H   0  0  0  0  0  0  0  0  0  0  0  0
   13.5599   25.3062    5.9206 H   0  0  0  0  0  0  0  0  0  0  0  0
   11.2886   25.0683    4.8544 H   0  0  0  0  0  0  0  0  0  0  0  0
   10.3215   22.8583    7.4705 H   0  0  0  0  0  0  0  0  0  0  0  0
    9.6559   23.4502    5.9235 H   0  0  0  0  0  0  0  0  0  0  0  0
    8.4150   25.3641    6.2876 H   0  0  0  0  0  0  0  0  0  0  0  0
    8.1657   27.6182    7.2743 H   0  0  0  0  0  0  0  0  0  0  0  0
    9.9065   28.5105    8.8186 H   0  0  0  0  0  0  0  0  0  0  0  0
   11.8735   27.1005    9.3784 H   0  0  0  0  0  0  0  0  0  0  0  0
   12.0963   24.8314    8.3960 H   0  0  0  0  0  0  0  0  0  0  0  0
   13.0120   19.7571    5.4000 H   0  0  0  0  0  0  0  0  0  0  0  0
   14.4226   20.1061    6.4416 H   0  0  0  0  0  0  0  0  0  0  0  0
   16.4620   19.2540    5.6252 H   0  0  0  0  0  0  0  0  0  0  0  0
   17.8607   18.4788    3.7384 H   0  0  0  0  0  0  0  0  0  0  0  0
   17.0799   18.7046    1.4075 H   0  0  0  0  0  0  0  0  0  0  0  0
   14.8907   19.7631    0.9189 H   0  0  0  0  0  0  0  0  0  0  0  0
   13.4436   20.5423    2.7883 H   0  0  0  0  0  0  0  0  0  0  0  0
   13.6777   23.8057    7.2464 H   0  0  0  0  0  0  0  0  0  0  0  0
   15.4097   24.0720    7.1723 H   0  0  0  0  0  0  0  0  0  0  0  0
   14.6605   20.3055    9.7907 H   0  0  0  0  0  0  0  0  0  0  0  0
   16.6796   18.9811   10.4303 H   0  0  0  0  0  0  0  0  0  0  0  0
   18.9361   19.6961    9.6500 H   0  0  0  0  0  0  0  0  0  0  0  0
   19.1943   21.7114    8.2124 H   0  0  0  0  0  0  0  0  0  0  0  0
   17.2060   23.0424    7.6015 H   0  0  0  0  0  0  0  0  0  0  0  0
   15.7541   25.2335    4.0736 H   0  0  0  0  0  0  0  0  0  0  0  0
   14.3956   26.2946    4.0771 H   0  0  0  0  0  0  0  0  0  0  0  0
   12.3320   22.5177    3.5994 H   0  0  0  0  0  0  0  0  0  0  0  0
   12.3138   24.0132    2.6916 H   0  0  0  0  0  0  0  0  0  0  0  0
   10.9567   25.5615    2.0860 H   0  0  0  0  0  0  0  0  0  0  0  0
    9.2685   27.2562    1.4784 H   0  0  0  0  0  0  0  0  0  0  0  0
    6.8370   26.7919    1.7874 H   0  0  0  0  0  0  0  0  0  0  0  0
    6.1356   24.5902    2.7410 H   0  0  0  0  0  0  0  0  0  0  0  0
    7.8562   22.8749    3.3259 H   0  0  0  0  0  0  0  0  0  0  0  0
  1  8  1  0  0  0  0
  1  7  1  0  0  0  0
  1  2  1  0  0  0  0
  2 15  2  0  0  0  0
  2  3  1  0  0  0  0
  3 16  1  0  0  0  0
  3  4  1  0  0  0  0
  4 23  1  0  0  0  0
  4  5  1  0  0  0  0
  4 41  1  6  0  0  0
  5 31  1  0  0  0  0
  5  6  1  0  0  0  0
  5 42  1  6  0  0  0
  6 32  1  0  0  0  0
  6  7  1  0  0  0  0
  6 43  1  1  0  0  0
  7 33  1  0  0  0  0
  7 44  1  1  0  0  0
  8  9  1  0  0  0  0
  8 45  1  0  0  0  0
  8 46  1  0  0  0  0
  9 14  2  0  0  0  0
  9 10  1  0  0  0  0
 10 11  2  0  0  0  0
 10 47  1  0  0  0  0
 11 12  1  0  0  0  0
 11 48  1  0  0  0  0
 12 13  2  0  0  0  0
 12 49  1  0  0  0  0
 13 14  1  0  0  0  0
 13 50  1  0  0  0  0
 14 51  1  0  0  0  0
 16 17  1  0  0  0  0
 16 52  1  0  0  0  0
 16 53  1  0  0  0  0
 17 22  2  0  0  0  0
 17 18  1  0  0  0  0
 18 19  2  0  0  0  0
 18 54  1  0  0  0  0
 19 20  1  0  0  0  0
 19 55  1  0  0  0  0
 20 21  2  0  0  0  0
 20 56  1  0  0  0  0
 21 22  1  0  0  0  0
 21 57  1  0  0  0  0
 22 58  1  0  0  0  0
 23 24  1  0  0  0  0
 23 59  1  0  0  0  0
 23 60  1  0  0  0  0
 24 25  1  0  0  0  0
 25 30  2  0  0  0  0
 25 26  1  0  0  0  0
 26 27  2  0  0  0  0
 26 61  1  0  0  0  0
 27 28  1  0  0  0  0
 27 62  1  0  0  0  0
 28 29  2  0  0  0  0
 28 63  1  0  0  0  0
 29 30  1  0  0  0  0
 29 64  1  0  0  0  0
 30 65  1  0  0  0  0
 31 66  1  0  0  0  0
 32 67  1  0  0  0  0
 33 34  1  0  0  0  0
 33 68  1  0  0  0  0
 33 69  1  0  0  0  0
 34 35  1  0  0  0  0
 35 40  2  0  0  0  0
 35 36  1  0  0  0  0
 36 37  2  0  0  0  0
 36 70  1  0  0  0  0
 37 38  1  0  0  0  0
 37 71  1  0  0  0  0
 38 39  2  0  0  0  0
 38 72  1  0  0  0  0
 39 40  1  0  0  0  0
 39 73  1  0  0  0  0
 40 74  1  0  0  0  0
M  END
$$$$
