AIN
 OpenBabel04041916163D

 20 20  0  0  0  0  0  0  0  0999 V2000
   13.7844   16.1261    0.5916 O   0  0  0  0  0  0  0  0  0  0  0  0
   13.3111   15.7099    1.7011 C   0  0  0  0  0  0  0  0  0  0  0  0
   13.9627   15.6099    2.7811 O   0  0  0  0  0  0  0  0  0  0  0  0
   11.8630   15.2723    1.7003 C   0  0  0  0  0  0  0  0  0  0  0  0
   11.1261   15.3325    0.4938 C   0  0  0  0  0  0  0  0  0  0  0  0
    9.7764   14.9751    0.4347 C   0  0  0  0  0  0  0  0  0  0  0  0
    9.1200   14.5587    1.5874 C   0  0  0  0  0  0  0  0  0  0  0  0
    9.8177   14.4927    2.7904 C   0  0  0  0  0  0  0  0  0  0  0  0
   11.1788   14.8252    2.8391 C   0  0  0  0  0  0  0  0  0  0  0  0
   11.7459   14.8653    4.1399 O   0  0  0  0  0  0  0  0  0  0  0  0
   12.4302   13.8361    4.7836 C   0  0  0  0  0  0  0  0  0  0  0  0
   12.6235   13.8685    6.0006 O   0  0  0  0  0  0  0  0  0  0  0  0
   12.8203   12.6413    3.9608 C   0  0  0  0  0  0  0  0  0  0  0  0
   11.6240   15.6914   -0.4081 H   0  0  0  0  0  0  0  0  0  0  0  0
    9.2435   15.0494   -0.5120 H   0  0  0  0  0  0  0  0  0  0  0  0
    8.0635   14.3161    1.5504 H   0  0  0  0  0  0  0  0  0  0  0  0
    9.2968   14.2217    3.7042 H   0  0  0  0  0  0  0  0  0  0  0  0
   13.3038   11.9155    4.6291 H   0  0  0  0  0  0  0  0  0  0  0  0
   13.5452   12.9003    3.1912 H   0  0  0  0  0  0  0  0  0  0  0  0
   11.9403   12.1493    3.5423 H   0  0  0  0  0  0  0  0  0  0  0  0
  1  2  2  0  0  0  0
  2  3  1  0  0  0  0
  2  4  1  0  0  0  0
  4  5  2  0  0  0  0
  4  9  1  0  0  0  0
  5  6  1  0  0  0  0
  5 14  1  0  0  0  0
  6  7  2  0  0  0  0
  6 15  1  0  0  0  0
  7  8  1  0  0  0  0
  7 16  1  0  0  0  0
  8  9  2  0  0  0  0
  8 17  1  0  0  0  0
  9 10  1  0  0  0  0
 10 11  1  0  0  0  0
 11 12  2  0  0  0  0
 11 13  1  0  0  0  0
 13 18  1  0  0  0  0
 13 19  1  0  0  0  0
 13 20  1  0  0  0  0
M  END
$$$$
