AIQ
 OpenBabel04041915163D

 32 34  0  0  0  0  0  0  0  0999 V2000
   17.3003   17.2714   18.6129 C   0  0  0  0  0  0  0  0  0  0  0  0
   16.2570   17.0399   19.5296 C   0  0  0  0  0  0  0  0  0  0  0  0
   14.8537   16.6793   19.0752 C   0  0  0  0  0  0  0  0  0  0  0  0
   16.5284   17.2178   20.8979 C   0  0  0  0  0  0  0  0  0  0  0  0
   15.4868   17.0347   21.8178 N   0  0  0  0  0  0  0  0  0  0  0  0
   15.7195   17.1871   23.0777 C   0  0  0  0  0  0  0  0  0  0  0  0
   14.7203   17.0017   23.9571 N   0  0  0  0  0  0  0  0  0  0  0  0
   16.9366   17.5307   23.5720 N   0  3  0  0  0  0  0  0  0  0  0  0
   18.0348   17.7555   22.7626 C   0  0  0  0  0  0  0  0  0  0  0  0
   19.1178   18.0742   23.2338 O   0  0  0  0  0  0  0  0  0  0  0  0
   17.8139   17.5938   21.3162 C   0  0  0  0  0  0  0  0  0  0  0  0
   18.8381   17.8005   20.3938 C   0  0  0  0  0  0  0  0  0  0  0  0
   18.5883   17.6413   19.0305 C   0  0  0  0  0  0  0  0  0  0  0  0
   19.5842   17.8735   18.0993 N   0  0  0  0  0  0  0  0  0  0  0  0
   14.6339   15.0243   18.3322 S   0  0  0  0  0  0  0  0  0  0  0  0
   14.6186   15.4784   16.6673 C   0  0  0  0  0  0  0  0  0  0  0  0
   15.4162   16.3672   16.1241 N   0  0  0  0  0  0  0  0  0  0  0  0
   13.7162   14.9906   15.7641 N   0  3  0  0  0  0  0  0  0  0  0  0
   15.0274   16.4545   14.8210 C   0  0  0  0  0  0  0  0  0  0  0  0
   13.9684   15.6164   14.5682 C   0  0  0  0  0  0  0  0  0  0  0  0
   17.1114   17.1682   17.5469 H   0  0  0  0  0  0  0  0  0  0  0  0
   14.4840   17.4371   18.3782 H   0  0  0  0  0  0  0  0  0  0  0  0
   14.1557   16.7267   19.9187 H   0  0  0  0  0  0  0  0  0  0  0  0
   13.8207   16.7394   23.5747 H   0  0  0  0  0  0  0  0  0  0  0  0
   14.8279   17.0937   24.9525 H   0  0  0  0  0  0  0  0  0  0  0  0
   17.0702   17.6331   24.5607 H   0  0  0  0  0  0  0  0  0  0  0  0
   19.8316   18.0912   20.7402 H   0  0  0  0  0  0  0  0  0  0  0  0
   19.4030   17.7341   17.1143 H   0  0  0  0  0  0  0  0  0  0  0  0
   20.5219   18.1112   18.3896 H   0  0  0  0  0  0  0  0  0  0  0  0
   12.9883   14.3171   15.9595 H   0  0  0  0  0  0  0  0  0  0  0  0
   15.5304   17.1216   14.1349 H   0  0  0  0  0  0  0  0  0  0  0  0
   13.4076   15.4338   13.6620 H   0  0  0  0  0  0  0  0  0  0  0  0
  1 13  2  0  0  0  0
  1  2  1  0  0  0  0
  1 21  1  0  0  0  0
  2  4  2  0  0  0  0
  2  3  1  0  0  0  0
  3 15  1  0  0  0  0
  3 22  1  0  0  0  0
  3 23  1  0  0  0  0
  4 11  1  0  0  0  0
  4  5  1  0  0  0  0
  5  6  2  0  0  0  0
  6  8  1  0  0  0  0
  6  7  1  0  0  0  0
  7 24  1  0  0  0  0
  7 25  1  0  0  0  0
  8  9  1  0  0  0  0
  8 26  1  0  0  0  0
  9 11  1  0  0  0  0
  9 10  2  0  0  0  0
 11 12  2  0  0  0  0
 12 13  1  0  0  0  0
 12 27  1  0  0  0  0
 13 14  1  0  0  0  0
 14 28  1  0  0  0  0
 14 29  1  0  0  0  0
 15 16  1  0  0  0  0
 16 18  2  0  0  0  0
 16 17  1  0  0  0  0
 17 19  1  0  0  0  0
 18 20  1  0  0  0  0
 18 30  1  0  0  0  0
 19 20  2  0  0  0  0
 19 31  1  0  0  0  0
 20 32  1  0  0  0  0
M  CHG  2   8   1  18   1
M  END
$$$$
