AL3
 OpenBabel04041914033D

 34 36  0  0  1  0  0  0  0  0999 V2000
   -5.3724    2.0980   15.8930 C   0  0  0  0  0  0  0  0  0  0  0  0
   -2.4745    2.8358   12.7561 O   0  0  0  0  0  0  0  0  0  0  0  0
   -3.3281    5.1326   12.7308 C   0  0  0  0  0  0  0  0  0  0  0  0
   -2.9649    3.8795   13.5894 C   0  0  1  0  0  0  0  0  0  0  0  0
   -3.0409    6.7316   14.6339 C   0  0  0  0  0  0  0  0  0  0  0  0
   -2.4462    8.0352   14.2374 C   0  0  0  0  0  0  0  0  0  0  0  0
   -2.4194    8.6520   12.9957 C   0  0  0  0  0  0  0  0  0  0  0  0
   -1.7274    9.8876   13.0216 C   0  0  0  0  0  0  0  0  0  0  0  0
   -1.2363   10.1816   14.2761 C   0  0  0  0  0  0  0  0  0  0  0  0
   -5.3596    1.0997   18.2524 O   0  0  0  0  0  0  0  0  0  0  0  0
   -7.3398    0.6191   16.7226 O   0  0  0  0  0  0  0  0  0  0  0  0
   -5.1651   -0.5786   16.3677 N   0  0  0  0  0  0  0  0  0  0  0  0
   -5.9367    0.8049   16.9622 S   0  0  0  0  0  0  0  0  0  0  0  0
   -4.2133    2.1875   15.1451 C   0  0  0  0  0  0  0  0  0  0  0  0
   -4.1195    3.4151   14.4404 C   0  0  0  0  0  0  0  0  0  0  0  0
   -5.2280    4.2056   14.7002 C   0  0  0  0  0  0  0  0  0  0  0  0
   -6.3543    3.4865   15.7374 S   0  0  0  0  0  0  0  0  0  0  0  0
   -5.5275    5.8402   14.0737 S   0  0  0  0  0  0  0  0  0  0  0  0
   -6.3554    5.6384   12.9071 O   0  0  0  0  0  0  0  0  0  0  0  0
   -5.9078    6.6707   15.1904 O   0  0  0  0  0  0  0  0  0  0  0  0
   -3.9389    6.2439   13.5545 N   0  0  0  0  0  0  0  0  0  0  0  0
   -1.6029    8.9611   15.4124 S   0  0  0  0  0  0  0  0  0  0  0  0
   -1.9785    2.2275   13.3325 H   0  0  0  0  0  0  0  0  0  0  0  0
   -4.0255    4.8461   11.9304 H   0  0  0  0  0  0  0  0  0  0  0  0
   -2.4393    5.5053   12.2095 H   0  0  0  0  0  0  0  0  0  0  0  0
   -2.1432    4.1322   14.2675 H   0  0  0  0  0  0  0  0  0  0  0  0
   -2.2082    6.0438   14.8094 H   0  0  0  0  0  0  0  0  0  0  0  0
   -3.5551    6.8134   15.5979 H   0  0  0  0  0  0  0  0  0  0  0  0
   -2.8862    8.2274   12.1152 H   0  0  0  0  0  0  0  0  0  0  0  0
   -1.5982   10.5371   12.1645 H   0  0  0  0  0  0  0  0  0  0  0  0
   -0.6791   11.0498   14.5833 H   0  0  0  0  0  0  0  0  0  0  0  0
   -5.6769   -1.4047   16.6796 H   0  0  0  0  0  0  0  0  0  0  0  0
   -5.0791   -0.5578   15.3514 H   0  0  0  0  0  0  0  0  0  0  0  0
   -3.4636    1.4061   15.1363 H   0  0  0  0  0  0  0  0  0  0  0  0
  1 17  1  0  0  0  0
  1 14  2  0  0  0  0
  1 13  1  0  0  0  0
  2  4  1  0  0  0  0
  2 23  1  0  0  0  0
  3  4  1  0  0  0  0
  3 21  1  0  0  0  0
  3 24  1  0  0  0  0
  3 25  1  0  0  0  0
  4 15  1  0  0  0  0
  4 26  1  1  0  0  0
  5 21  1  0  0  0  0
  5  6  1  0  0  0  0
  5 27  1  0  0  0  0
  5 28  1  0  0  0  0
  6 22  1  0  0  0  0
  6  7  2  0  0  0  0
  7  8  1  0  0  0  0
  7 29  1  0  0  0  0
  8  9  2  0  0  0  0
  8 30  1  0  0  0  0
  9 22  1  0  0  0  0
  9 31  1  0  0  0  0
 10 13  2  0  0  0  0
 11 13  2  0  0  0  0
 12 13  1  0  0  0  0
 12 32  1  0  0  0  0
 12 33  1  0  0  0  0
 14 15  1  0  0  0  0
 14 34  1  0  0  0  0
 15 16  2  0  0  0  0
 16 18  1  0  0  0  0
 16 17  1  0  0  0  0
 18 21  1  0  0  0  0
 18 20  2  0  0  0  0
 18 19  2  0  0  0  0
M  END
$$$$
