AL4
 OpenBabel04041914033D

 42 43  0  0  1  0  0  0  0  0999 V2000
   -5.4048    2.1226   15.9994 C   0  0  0  0  0  0  0  0  0  0  0  0
   -3.4598    5.2108   12.7850 C   0  0  0  0  0  0  0  0  0  0  0  0
   -3.0879    3.8902   13.5390 C   0  0  1  0  0  0  0  0  0  0  0  0
   -3.3431    7.4873   13.7974 C   0  0  0  0  0  0  0  0  0  0  0  0
   -2.1054    7.3642   14.6879 C   0  0  0  0  0  0  0  0  0  0  0  0
   -1.8698    9.6499   15.1653 C   0  0  0  0  0  0  0  0  0  0  0  0
   -1.4434    2.9737   11.8642 C   0  0  0  0  0  0  0  0  0  0  0  0
   -5.2541    0.9550   18.2648 O   0  0  0  0  0  0  0  0  0  0  0  0
   -7.4581    0.9010   16.9843 O   0  0  0  0  0  0  0  0  0  0  0  0
   -5.5650   -0.5773   16.2972 N   0  0  0  0  0  0  0  0  0  0  0  0
   -6.0211    0.8383   17.0504 S   0  0  0  0  0  0  0  0  0  0  0  0
   -4.2526    2.1925   15.2146 C   0  0  0  0  0  0  0  0  0  0  0  0
   -4.1807    3.4272   14.4903 C   0  0  0  0  0  0  0  0  0  0  0  0
   -5.2371    4.2562   14.8611 C   0  0  0  0  0  0  0  0  0  0  0  0
   -6.3295    3.5534   15.9329 S   0  0  0  0  0  0  0  0  0  0  0  0
   -5.5144    5.9351   14.3518 S   0  0  0  0  0  0  0  0  0  0  0  0
   -6.4242    5.8400   13.2365 O   0  0  0  0  0  0  0  0  0  0  0  0
   -5.6867    6.7279   15.5405 O   0  0  0  0  0  0  0  0  0  0  0  0
   -3.9797    6.1932   13.7277 N   0  0  0  0  0  0  0  0  0  0  0  0
   -2.7872    2.8437   12.5068 N   0  3  0  0  0  0  0  0  0  0  0  0
   -1.2754    8.5047   14.5652 O   0  0  0  0  0  0  0  0  0  0  0  0
   -1.2657    1.8460   10.8741 C   0  0  0  0  0  0  0  0  0  0  0  0
   -4.2193    5.0168   12.0188 H   0  0  0  0  0  0  0  0  0  0  0  0
   -2.5839    5.6051   12.2593 H   0  0  0  0  0  0  0  0  0  0  0  0
   -2.1740    4.0418   14.1325 H   0  0  0  0  0  0  0  0  0  0  0  0
   -4.0379    8.2298   14.1959 H   0  0  0  0  0  0  0  0  0  0  0  0
   -3.0735    7.8250   12.7912 H   0  0  0  0  0  0  0  0  0  0  0  0
   -1.5027    6.4996   14.3791 H   0  0  0  0  0  0  0  0  0  0  0  0
   -2.3785    7.1813   15.7359 H   0  0  0  0  0  0  0  0  0  0  0  0
   -1.1946   10.4952   15.0324 H   0  0  0  0  0  0  0  0  0  0  0  0
   -2.0316    9.4700   16.2318 H   0  0  0  0  0  0  0  0  0  0  0  0
   -2.8190    9.8978   14.6817 H   0  0  0  0  0  0  0  0  0  0  0  0
   -0.6928    2.9276   12.6587 H   0  0  0  0  0  0  0  0  0  0  0  0
   -1.3979    3.9423   11.3595 H   0  0  0  0  0  0  0  0  0  0  0  0
   -5.7438   -1.4244   16.8234 H   0  0  0  0  0  0  0  0  0  0  0  0
   -4.9800   -0.5738   15.4773 H   0  0  0  0  0  0  0  0  0  0  0  0
   -3.5273    1.3972   15.1935 H   0  0  0  0  0  0  0  0  0  0  0  0
   -2.8614    1.9174   12.9389 H   0  0  0  0  0  0  0  0  0  0  0  0
   -0.2838    1.9241   10.3995 H   0  0  0  0  0  0  0  0  0  0  0  0
   -2.0285    1.8853   10.0893 H   0  0  0  0  0  0  0  0  0  0  0  0
   -1.3312    0.8720   11.3690 H   0  0  0  0  0  0  0  0  0  0  0  0
   -3.5261    2.8710   11.7896 H   0  0  0  0  0  0  0  0  0  0  0  0
  1 15  1  0  0  0  0
  1 12  2  0  0  0  0
  1 11  1  0  0  0  0
  2  3  1  0  0  0  0
  2 19  1  0  0  0  0
  2 23  1  0  0  0  0
  2 24  1  0  0  0  0
  3 13  1  0  0  0  0
  3 20  1  0  0  0  0
  3 25  1  1  0  0  0
  4 19  1  0  0  0  0
  4  5  1  0  0  0  0
  4 26  1  0  0  0  0
  4 27  1  0  0  0  0
  5 21  1  0  0  0  0
  5 28  1  0  0  0  0
  5 29  1  0  0  0  0
  6 21  1  0  0  0  0
  6 30  1  0  0  0  0
  6 31  1  0  0  0  0
  6 32  1  0  0  0  0
  7 20  1  0  0  0  0
  7 22  1  0  0  0  0
  7 33  1  0  0  0  0
  7 34  1  0  0  0  0
  8 11  2  0  0  0  0
  9 11  2  0  0  0  0
 10 11  1  0  0  0  0
 10 35  1  0  0  0  0
 10 36  1  0  0  0  0
 12 13  1  0  0  0  0
 12 37  1  0  0  0  0
 13 14  2  0  0  0  0
 14 16  1  0  0  0  0
 14 15  1  0  0  0  0
 16 19  1  0  0  0  0
 16 18  2  0  0  0  0
 16 17  2  0  0  0  0
 20 38  1  0  0  0  0
 20 42  1  0  0  0  0
 22 39  1  0  0  0  0
 22 40  1  0  0  0  0
 22 41  1  0  0  0  0
M  CHG  1  20   1
M  END
$$$$
