AL5
 OpenBabel04041914023D

 35 36  0  0  0  0  0  0  0  0999 V2000
   -5.2208    1.9015   15.9378 C   0  0  0  0  0  0  0  0  0  0  0  0
   -2.4858    6.0428   13.9674 C   0  0  0  0  0  0  0  0  0  0  0  0
   -2.0564    7.4710   13.9959 C   0  0  0  0  0  0  0  0  0  0  0  0
   -2.0356    8.2572   12.8397 C   0  0  0  0  0  0  0  0  0  0  0  0
   -1.6124    9.5794   12.8980 C   0  0  0  0  0  0  0  0  0  0  0  0
   -1.1884   10.1398   14.1127 C   0  0  0  0  0  0  0  0  0  0  0  0
   -1.2106    9.3447   15.2692 C   0  0  0  0  0  0  0  0  0  0  0  0
   -1.6366    8.0313   15.2124 C   0  0  0  0  0  0  0  0  0  0  0  0
   -0.7120   11.5662   14.1937 C   0  0  0  0  0  0  0  0  0  0  0  0
   -7.4064    0.7543   16.7538 O   0  0  0  0  0  0  0  0  0  0  0  0
   -5.3537    0.8399   18.2470 O   0  0  0  0  0  0  0  0  0  0  0  0
   -5.4189   -0.7298   16.2922 N   0  0  0  0  0  0  0  0  0  0  0  0
   -5.9864    0.6961   16.9559 S   0  0  0  0  0  0  0  0  0  0  0  0
   -3.9295    1.9256   15.4521 C   0  0  0  0  0  0  0  0  0  0  0  0
   -3.6858    3.0691   14.6649 C   0  0  0  0  0  0  0  0  0  0  0  0
   -4.8103    3.8798   14.5822 C   0  0  0  0  0  0  0  0  0  0  0  0
   -6.1453    3.2209   15.4057 S   0  0  0  0  0  0  0  0  0  0  0  0
   -5.0739    5.4789   13.8628 S   0  0  0  0  0  0  0  0  0  0  0  0
   -6.0741    5.3086   12.8388 O   0  0  0  0  0  0  0  0  0  0  0  0
   -5.2174    6.3774   14.9810 O   0  0  0  0  0  0  0  0  0  0  0  0
   -3.6283    5.7959   13.1111 N   0  0  0  0  0  0  0  0  0  0  0  0
   -1.6528    5.4069   13.6495 H   0  0  0  0  0  0  0  0  0  0  0  0
   -2.7200    5.7336   14.9938 H   0  0  0  0  0  0  0  0  0  0  0  0
   -2.3612    7.8445   11.8861 H   0  0  0  0  0  0  0  0  0  0  0  0
   -1.6164   10.1778   11.9901 H   0  0  0  0  0  0  0  0  0  0  0  0
   -0.8962    9.7694   16.2223 H   0  0  0  0  0  0  0  0  0  0  0  0
   -1.6571    7.4384   16.1283 H   0  0  0  0  0  0  0  0  0  0  0  0
   -0.7576   12.0503   13.2195 H   0  0  0  0  0  0  0  0  0  0  0  0
    0.3231   11.5797   14.5416 H   0  0  0  0  0  0  0  0  0  0  0  0
   -1.3389   12.1258   14.8920 H   0  0  0  0  0  0  0  0  0  0  0  0
   -5.7327   -1.5959   16.7042 H   0  0  0  0  0  0  0  0  0  0  0  0
   -4.9080   -0.6951   15.4274 H   0  0  0  0  0  0  0  0  0  0  0  0
   -3.2036    1.1566   15.6898 H   0  0  0  0  0  0  0  0  0  0  0  0
   -2.7214    3.2975   14.2297 H   0  0  0  0  0  0  0  0  0  0  0  0
   -3.6111    5.9092   12.1028 H   0  0  0  0  0  0  0  0  0  0  0  0
  1 17  1  0  0  0  0
  1 14  2  0  0  0  0
  1 13  1  0  0  0  0
  2 21  1  0  0  0  0
  2  3  1  0  0  0  0
  2 22  1  0  0  0  0
  2 23  1  0  0  0  0
  3  8  2  0  0  0  0
  3  4  1  0  0  0  0
  4  5  2  0  0  0  0
  4 24  1  0  0  0  0
  5  6  1  0  0  0  0
  5 25  1  0  0  0  0
  6  9  1  0  0  0  0
  6  7  2  0  0  0  0
  7  8  1  0  0  0  0
  7 26  1  0  0  0  0
  8 27  1  0  0  0  0
  9 28  1  0  0  0  0
  9 29  1  0  0  0  0
  9 30  1  0  0  0  0
 10 13  2  0  0  0  0
 11 13  2  0  0  0  0
 12 13  1  0  0  0  0
 12 31  1  0  0  0  0
 12 32  1  0  0  0  0
 14 15  1  0  0  0  0
 14 33  1  0  0  0  0
 15 16  2  0  0  0  0
 15 34  1  0  0  0  0
 16 18  1  0  0  0  0
 16 17  1  0  0  0  0
 18 21  1  0  0  0  0
 18 20  2  0  0  0  0
 18 19  2  0  0  0  0
 21 35  1  0  0  0  0
M  END
$$$$
