AL6
 OpenBabel04041914023D

 35 37  0  0  0  0  0  0  0  0999 V2000
   -5.2582    1.9020   15.9445 C   0  0  0  0  0  0  0  0  0  0  0  0
   -0.8788    9.4603   15.5427 O   0  0  0  0  0  0  0  0  0  0  0  0
   -2.3612    4.9291   13.6952 C   0  0  0  0  0  0  0  0  0  0  0  0
   -2.5618    3.7063   14.2073 C   0  0  0  0  0  0  0  0  0  0  0  0
   -2.9960    7.2710   13.5935 C   0  0  0  0  0  0  0  0  0  0  0  0
   -3.4039    8.0729   12.5316 C   0  0  0  0  0  0  0  0  0  0  0  0
   -2.9535    9.3881   12.4578 C   0  0  0  0  0  0  0  0  0  0  0  0
   -2.1055    9.8944   13.4483 C   0  0  0  0  0  0  0  0  0  0  0  0
   -1.7075    9.0936   14.5193 C   0  0  0  0  0  0  0  0  0  0  0  0
   -2.1623    7.7864   14.5928 C   0  0  0  0  0  0  0  0  0  0  0  0
   -5.2621    0.6086   18.1503 O   0  0  0  0  0  0  0  0  0  0  0  0
   -7.4245    0.7307   16.8170 O   0  0  0  0  0  0  0  0  0  0  0  0
   -5.5903   -0.8090   16.1060 N   0  0  0  0  0  0  0  0  0  0  0  0
   -5.9856    0.6036   16.8948 S   0  0  0  0  0  0  0  0  0  0  0  0
   -3.9763    1.9930   15.4304 C   0  0  0  0  0  0  0  0  0  0  0  0
   -3.7704    3.2269   14.7818 C   0  0  0  0  0  0  0  0  0  0  0  0
   -4.9043    3.9916   14.7525 C   0  0  0  0  0  0  0  0  0  0  0  0
   -6.2006    3.2909   15.5823 S   0  0  0  0  0  0  0  0  0  0  0  0
   -5.0296    5.5540   13.9554 S   0  0  0  0  0  0  0  0  0  0  0  0
   -5.6763    5.2777   12.6908 O   0  0  0  0  0  0  0  0  0  0  0  0
   -5.5823    6.4628   14.9361 O   0  0  0  0  0  0  0  0  0  0  0  0
   -3.3990    5.9147   13.6679 N   0  0  0  0  0  0  0  0  0  0  0  0
   -0.4191   10.8028   15.5231 C   0  0  0  0  0  0  0  0  0  0  0  0
   -1.3780    5.2340   13.3445 H   0  0  0  0  0  0  0  0  0  0  0  0
   -1.7036    3.0375   14.2359 H   0  0  0  0  0  0  0  0  0  0  0  0
   -4.0562    7.6774   11.7571 H   0  0  0  0  0  0  0  0  0  0  0  0
   -3.2592   10.0194   11.6293 H   0  0  0  0  0  0  0  0  0  0  0  0
   -1.7752   10.9260   13.3533 H   0  0  0  0  0  0  0  0  0  0  0  0
   -1.8555    7.1585   15.4259 H   0  0  0  0  0  0  0  0  0  0  0  0
   -5.7873   -1.6738   16.6024 H   0  0  0  0  0  0  0  0  0  0  0  0
   -4.9348   -0.7900   15.3313 H   0  0  0  0  0  0  0  0  0  0  0  0
   -3.2325    1.2200   15.5601 H   0  0  0  0  0  0  0  0  0  0  0  0
    0.2045   10.9612   16.4019 H   0  0  0  0  0  0  0  0  0  0  0  0
   -1.2588   11.5037   15.5734 H   0  0  0  0  0  0  0  0  0  0  0  0
    0.2005   10.9888   14.6332 H   0  0  0  0  0  0  0  0  0  0  0  0
  1 18  1  0  0  0  0
  1 15  2  0  0  0  0
  1 14  1  0  0  0  0
  2  9  1  0  0  0  0
  2 23  1  0  0  0  0
  3  4  2  0  0  0  0
  3 22  1  0  0  0  0
  3 24  1  0  0  0  0
  4 16  1  0  0  0  0
  4 25  1  0  0  0  0
  5 22  1  0  0  0  0
  5 10  2  0  0  0  0
  5  6  1  0  0  0  0
  6  7  2  0  0  0  0
  6 26  1  0  0  0  0
  7  8  1  0  0  0  0
  7 27  1  0  0  0  0
  8  9  2  0  0  0  0
  8 28  1  0  0  0  0
  9 10  1  0  0  0  0
 10 29  1  0  0  0  0
 11 14  2  0  0  0  0
 12 14  2  0  0  0  0
 13 14  1  0  0  0  0
 13 30  1  0  0  0  0
 13 31  1  0  0  0  0
 15 16  1  0  0  0  0
 15 32  1  0  0  0  0
 16 17  2  0  0  0  0
 17 19  1  0  0  0  0
 17 18  1  0  0  0  0
 19 22  1  0  0  0  0
 19 21  2  0  0  0  0
 19 20  2  0  0  0  0
 23 33  1  0  0  0  0
 23 34  1  0  0  0  0
 23 35  1  0  0  0  0
M  END
$$$$
