AL9
 OpenBabel04041914033D

 36 37  0  0  0  0  0  0  0  0999 V2000
   -5.2673    1.8976   15.8889 C   0  0  0  0  0  0  0  0  0  0  0  0
   -2.5880    6.0333   14.1881 C   0  0  0  0  0  0  0  0  0  0  0  0
   -2.0565    7.4264   14.3016 C   0  0  0  0  0  0  0  0  0  0  0  0
   -1.5681    8.0854   13.1739 C   0  0  0  0  0  0  0  0  0  0  0  0
   -1.0325    9.3493   13.2959 C   0  0  0  0  0  0  0  0  0  0  0  0
   -0.9630    9.9829   14.5433 C   0  0  0  0  0  0  0  0  0  0  0  0
   -1.4506    9.3305   15.6755 C   0  0  0  0  0  0  0  0  0  0  0  0
   -1.9972    8.0527   15.5534 C   0  0  0  0  0  0  0  0  0  0  0  0
   -7.4050    0.7091   16.7826 O   0  0  0  0  0  0  0  0  0  0  0  0
   -5.3364    0.9163   18.2481 O   0  0  0  0  0  0  0  0  0  0  0  0
   -5.3795   -0.7532   16.3921 N   0  0  0  0  0  0  0  0  0  0  0  0
   -5.9757    0.6974   16.9733 S   0  0  0  0  0  0  0  0  0  0  0  0
   -4.0356    1.8862   15.2729 C   0  0  0  0  0  0  0  0  0  0  0  0
   -3.8337    3.0284   14.4737 C   0  0  0  0  0  0  0  0  0  0  0  0
   -4.9158    3.8862   14.5203 C   0  0  0  0  0  0  0  0  0  0  0  0
   -6.1730    3.2864   15.5017 S   0  0  0  0  0  0  0  0  0  0  0  0
   -5.1674    5.4788   13.7725 S   0  0  0  0  0  0  0  0  0  0  0  0
   -6.0048    5.2549   12.6314 O   0  0  0  0  0  0  0  0  0  0  0  0
   -5.5120    6.3878   14.8572 O   0  0  0  0  0  0  0  0  0  0  0  0
   -3.6566    5.8882   13.2088 N   0  0  0  0  0  0  0  0  0  0  0  0
   -0.4314   11.2282   14.7573 O   0  0  0  0  0  0  0  0  0  0  0  0
    0.0749   11.8576   13.5845 C   0  0  0  0  0  0  0  0  0  0  0  0
   -1.7685    5.3657   13.9037 H   0  0  0  0  0  0  0  0  0  0  0  0
   -2.9167    5.7009   15.1740 H   0  0  0  0  0  0  0  0  0  0  0  0
   -1.5974    7.6153   12.1924 H   0  0  0  0  0  0  0  0  0  0  0  0
   -0.6671    9.8255   12.3899 H   0  0  0  0  0  0  0  0  0  0  0  0
   -1.4051    9.8064   16.6485 H   0  0  0  0  0  0  0  0  0  0  0  0
   -2.3724    7.5532   16.4423 H   0  0  0  0  0  0  0  0  0  0  0  0
   -5.7688   -1.5914   16.8118 H   0  0  0  0  0  0  0  0  0  0  0  0
   -5.0404   -0.7791   15.4340 H   0  0  0  0  0  0  0  0  0  0  0  0
   -3.3180    1.0842   15.4105 H   0  0  0  0  0  0  0  0  0  0  0  0
   -2.9253    3.2273   13.9172 H   0  0  0  0  0  0  0  0  0  0  0  0
   -3.5959    6.2818   12.2774 H   0  0  0  0  0  0  0  0  0  0  0  0
    0.4793   12.8321   13.8635 H   0  0  0  0  0  0  0  0  0  0  0  0
   -0.7277   12.0197   12.8568 H   0  0  0  0  0  0  0  0  0  0  0  0
    0.8898   11.2672   13.1485 H   0  0  0  0  0  0  0  0  0  0  0  0
  1 16  1  0  0  0  0
  1 13  2  0  0  0  0
  1 12  1  0  0  0  0
  2 20  1  0  0  0  0
  2  3  1  0  0  0  0
  2 23  1  0  0  0  0
  2 24  1  0  0  0  0
  3  8  2  0  0  0  0
  3  4  1  0  0  0  0
  4  5  2  0  0  0  0
  4 25  1  0  0  0  0
  5  6  1  0  0  0  0
  5 26  1  0  0  0  0
  6 21  1  0  0  0  0
  6  7  2  0  0  0  0
  7  8  1  0  0  0  0
  7 27  1  0  0  0  0
  8 28  1  0  0  0  0
  9 12  2  0  0  0  0
 10 12  2  0  0  0  0
 11 12  1  0  0  0  0
 11 29  1  0  0  0  0
 11 30  1  0  0  0  0
 13 14  1  0  0  0  0
 13 31  1  0  0  0  0
 14 15  2  0  0  0  0
 14 32  1  0  0  0  0
 15 17  1  0  0  0  0
 15 16  1  0  0  0  0
 17 20  1  0  0  0  0
 17 19  2  0  0  0  0
 17 18  2  0  0  0  0
 20 33  1  0  0  0  0
 21 22  1  0  0  0  0
 22 34  1  0  0  0  0
 22 35  1  0  0  0  0
 22 36  1  0  0  0  0
M  END
$$$$
