ALL
 OpenBabel04041916453D

 24 24  0  0  1  0  0  0  0  0999 V2000
    4.8966    7.1485   10.4800 C   0  0  2  0  0  0  0  0  0  0  0  0
    5.2097    8.5558   11.0188 C   0  0  1  0  0  0  0  0  0  0  0  0
    4.7656    8.6353   12.4804 C   0  0  1  0  0  0  0  0  0  0  0  0
    3.2769    8.2660   12.5851 C   0  0  1  0  0  0  0  0  0  0  0  0
    3.0432    6.8825   11.9401 C   0  0  1  0  0  0  0  0  0  0  0  0
    1.5624    6.4620   11.9856 C   0  0  0  0  0  0  0  0  0  0  0  0
    5.2802    7.0827    9.1097 O   0  0  0  0  0  0  0  0  0  0  0  0
    6.5927    8.8969   10.8747 O   0  0  0  0  0  0  0  0  0  0  0  0
    5.5269    7.7195   13.2905 O   0  0  0  0  0  0  0  0  0  0  0  0
    2.9135    8.2477   13.9725 O   0  0  0  0  0  0  0  0  0  0  0  0
    3.5022    6.8666   10.5716 O   0  0  0  0  0  0  0  0  0  0  0  0
    0.7134    7.4091   11.3380 O   0  0  0  0  0  0  0  0  0  0  0  0
    5.4731    6.3754   11.0013 H   0  0  0  0  0  0  0  0  0  0  0  0
    4.6505    9.2983   10.4356 H   0  0  0  0  0  0  0  0  0  0  0  0
    4.9587    9.6306   12.8947 H   0  0  0  0  0  0  0  0  0  0  0  0
    2.6776    9.0294   12.0731 H   0  0  0  0  0  0  0  0  0  0  0  0
    3.5963    6.1121   12.4929 H   0  0  0  0  0  0  0  0  0  0  0  0
    1.2249    6.3560   13.0218 H   0  0  0  0  0  0  0  0  0  0  0  0
    1.4380    5.4998   11.4779 H   0  0  0  0  0  0  0  0  0  0  0  0
    4.6388    7.6439    8.6432 H   0  0  0  0  0  0  0  0  0  0  0  0
    6.8718    8.5445   10.0081 H   0  0  0  0  0  0  0  0  0  0  0  0
    5.0867    7.6919   14.1616 H   0  0  0  0  0  0  0  0  0  0  0  0
    2.9181    9.1726   14.2808 H   0  0  0  0  0  0  0  0  0  0  0  0
   -0.1746    7.0169   11.3213 H   0  0  0  0  0  0  0  0  0  0  0  0
  1 11  1  0  0  0  0
  1  7  1  0  0  0  0
  1  2  1  0  0  0  0
  1 13  1  1  0  0  0
  2  8  1  0  0  0  0
  2  3  1  0  0  0  0
  2 14  1  6  0  0  0
  3  9  1  0  0  0  0
  3  4  1  0  0  0  0
  3 15  1  1  0  0  0
  4 10  1  0  0  0  0
  4  5  1  0  0  0  0
  4 16  1  6  0  0  0
  5 11  1  0  0  0  0
  5  6  1  0  0  0  0
  5 17  1  1  0  0  0
  6 12  1  0  0  0  0
  6 18  1  0  0  0  0
  6 19  1  0  0  0  0
  7 20  1  0  0  0  0
  8 21  1  0  0  0  0
  9 22  1  0  0  0  0
 10 23  1  0  0  0  0
 12 24  1  0  0  0  0
M  END
$$$$
