AMC
 OpenBabel04041917003D

 24 24  0  0  0  0  0  0  0  0999 V2000
   29.4665   15.0653   16.9660 C   0  0  0  0  0  0  0  0  0  0  0  0
   29.6665   13.5494   16.9522 C   0  0  0  0  0  0  0  0  0  0  0  0
   29.8817   13.0361   18.3680 C   0  0  0  0  0  0  0  0  0  0  0  0
   28.6938   13.3870   19.2638 C   0  0  0  0  0  0  0  0  0  0  0  0
   28.3659   14.8776   19.2364 C   0  0  0  0  0  0  0  0  0  0  0  0
   28.2314   15.3809   17.8019 C   0  0  0  0  0  0  0  0  0  0  0  0
   29.2413   15.5975   15.5523 C   0  0  0  0  0  0  0  0  0  0  0  0
   30.5272   15.6829   14.8346 N   0  3  0  0  0  0  0  0  0  0  0  0
   30.3485   15.5462   17.4146 H   0  0  0  0  0  0  0  0  0  0  0  0
   30.5257   13.2718   16.3174 H   0  0  0  0  0  0  0  0  0  0  0  0
   28.7820   13.0670   16.5204 H   0  0  0  0  0  0  0  0  0  0  0  0
   30.7952   13.4853   18.7792 H   0  0  0  0  0  0  0  0  0  0  0  0
   30.0255   11.9529   18.3450 H   0  0  0  0  0  0  0  0  0  0  0  0
   28.9013   13.0734   20.2933 H   0  0  0  0  0  0  0  0  0  0  0  0
   27.8129   12.8253   18.9253 H   0  0  0  0  0  0  0  0  0  0  0  0
   29.1522   15.4402   19.7531 H   0  0  0  0  0  0  0  0  0  0  0  0
   27.4306   15.0656   19.7708 H   0  0  0  0  0  0  0  0  0  0  0  0
   27.3579   14.9105   17.3417 H   0  0  0  0  0  0  0  0  0  0  0  0
   28.0603   16.4622   17.8111 H   0  0  0  0  0  0  0  0  0  0  0  0
   28.8235   16.6053   15.5680 H   0  0  0  0  0  0  0  0  0  0  0  0
   28.5909   14.9347   14.9697 H   0  0  0  0  0  0  0  0  0  0  0  0
   30.3838   16.0453   13.8841 H   0  0  0  0  0  0  0  0  0  0  0  0
   31.1849   16.3259   15.3089 H   0  0  0  0  0  0  0  0  0  0  0  0
   30.9917   14.7717   14.7501 H   0  0  0  0  0  0  0  0  0  0  0  0
  1  2  1  0  0  0  0
  1  6  1  0  0  0  0
  1  7  1  0  0  0  0
  1  9  1  0  0  0  0
  2  3  1  0  0  0  0
  2 10  1  0  0  0  0
  2 11  1  0  0  0  0
  3  4  1  0  0  0  0
  3 12  1  0  0  0  0
  3 13  1  0  0  0  0
  4  5  1  0  0  0  0
  4 14  1  0  0  0  0
  4 15  1  0  0  0  0
  5  6  1  0  0  0  0
  5 16  1  0  0  0  0
  5 17  1  0  0  0  0
  6 18  1  0  0  0  0
  6 19  1  0  0  0  0
  7  8  1  0  0  0  0
  7 20  1  0  0  0  0
  7 21  1  0  0  0  0
  8 22  1  0  0  0  0
  8 23  1  0  0  0  0
  8 24  1  0  0  0  0
M  CHG  1   8   1
M  END
$$$$
