AMH
 OpenBabel04041914113D

 26 26  0  0  1  0  0  0  0  0999 V2000
   21.9107   -3.6261   40.7728 C   0  0  2  0  0  0  0  0  0  0  0  0
   22.0738   -2.2878   40.1002 C   0  0  0  0  0  0  0  0  0  0  0  0
   20.7310   -1.5948   39.8809 C   0  0  0  0  0  0  0  0  0  0  0  0
   19.8279   -1.6356   41.0816 C   0  0  2  0  0  0  0  0  0  0  0  0
   19.7179   -2.9907   41.7887 C   0  0  0  0  0  0  0  0  0  0  0  0
   21.0549   -3.6775   42.0277 C   0  0  0  0  0  0  0  0  0  0  0  0
   18.4419   -1.0566   40.8275 C   0  0  0  0  0  0  0  0  0  0  0  0
   23.0065   -4.6936   40.7222 C   0  0  0  0  0  0  0  0  0  0  0  0
   18.1042   -0.4906   42.1599 N   0  3  0  0  0  0  0  0  0  0  0  0
   24.2062   -4.3535   40.9885 O   0  0  0  0  0  0  0  0  0  0  0  0
   22.5488   -5.7826   40.3686 O   0  0  0  0  0  0  0  0  0  0  0  0
   21.2007   -4.0643   40.0712 H   0  0  0  0  0  0  0  0  0  0  0  0
   22.5086   -2.4820   39.1115 H   0  0  0  0  0  0  0  0  0  0  0  0
   22.7430   -1.6301   40.6625 H   0  0  0  0  0  0  0  0  0  0  0  0
   20.2239   -2.0583   39.0271 H   0  0  0  0  0  0  0  0  0  0  0  0
   20.9405   -0.5408   39.6500 H   0  0  0  0  0  0  0  0  0  0  0  0
   20.3459   -0.9872   41.8009 H   0  0  0  0  0  0  0  0  0  0  0  0
   19.0818   -3.6598   41.1953 H   0  0  0  0  0  0  0  0  0  0  0  0
   19.2500   -2.8440   42.7657 H   0  0  0  0  0  0  0  0  0  0  0  0
   21.5560   -3.2258   42.8922 H   0  0  0  0  0  0  0  0  0  0  0  0
   20.8576   -4.7348   42.2587 H   0  0  0  0  0  0  0  0  0  0  0  0
   17.6464   -1.7754   40.5861 H   0  0  0  0  0  0  0  0  0  0  0  0
   18.3901   -0.2202   40.1185 H   0  0  0  0  0  0  0  0  0  0  0  0
   17.1868   -0.0431   42.1955 H   0  0  0  0  0  0  0  0  0  0  0  0
   18.1351   -1.2456   42.8571 H   0  0  0  0  0  0  0  0  0  0  0  0
   18.8288    0.1937   42.4159 H   0  0  0  0  0  0  0  0  0  0  0  0
  1  8  1  0  0  0  0
  1  6  1  0  0  0  0
  1  2  1  0  0  0  0
  1 12  1  6  0  0  0
  2  3  1  0  0  0  0
  2 13  1  0  0  0  0
  2 14  1  0  0  0  0
  3  4  1  0  0  0  0
  3 15  1  0  0  0  0
  3 16  1  0  0  0  0
  4  7  1  0  0  0  0
  4  5  1  0  0  0  0
  4 17  1  1  0  0  0
  5  6  1  0  0  0  0
  5 18  1  0  0  0  0
  5 19  1  0  0  0  0
  6 20  1  0  0  0  0
  6 21  1  0  0  0  0
  7  9  1  0  0  0  0
  7 22  1  0  0  0  0
  7 23  1  0  0  0  0
  8 11  2  0  0  0  0
  8 10  1  0  0  0  0
  9 24  1  0  0  0  0
  9 25  1  0  0  0  0
  9 26  1  0  0  0  0
M  CHG  1   9   1
M  END
$$$$
