AMP
 OpenBabel04041917543D

 35 37  0  0  1  0  0  0  0  0999 V2000
   36.5609    3.2762   13.5256 P   0  0  0  0  0  0  0  0  0  0  0  0
   35.0489    3.4009   13.6165 O   0  0  0  0  0  0  0  0  0  0  0  0
   37.2210    4.1663   12.4844 O   0  0  0  0  0  0  0  0  0  0  0  0
   37.1086    1.8624   13.5876 O   0  0  0  0  0  0  0  0  0  0  0  0
   37.0364    3.8739   14.9600 O   0  0  0  0  0  0  0  0  0  0  0  0
   37.0056    5.2636   15.1890 C   0  0  0  0  0  0  0  0  0  0  0  0
   38.1096    5.5581   16.2042 C   0  0  1  0  0  0  0  0  0  0  0  0
   37.5788    5.4439   17.5564 O   0  0  0  0  0  0  0  0  0  0  0  0
   39.2827    4.5788   16.0862 C   0  0  1  0  0  0  0  0  0  0  0  0
   40.5180    5.3130   15.9509 O   0  0  0  0  0  0  0  0  0  0  0  0
   39.2659    3.7888   17.3892 C   0  0  1  0  0  0  0  0  0  0  0  0
   40.6044    3.4742   17.8234 O   0  0  0  0  0  0  0  0  0  0  0  0
   38.5333    4.7288   18.3502 C   0  0  2  0  0  0  0  0  0  0  0  0
   37.8743    4.0697   19.4717 N   0  3  0  0  0  0  0  0  0  0  0  0
   38.1414    2.7888   19.9347 C   0  0  0  0  0  0  0  0  0  0  0  0
   37.4332    2.4798   21.0030 N   0  0  0  0  0  0  0  0  0  0  0  0
   36.6560    3.6068   21.2411 C   0  0  0  0  0  0  0  0  0  0  0  0
   35.6999    3.8813   22.2508 C   0  0  0  0  0  0  0  0  0  0  0  0
   35.3794    2.9635   23.2392 N   0  0  0  0  0  0  0  0  0  0  0  0
   35.1245    5.1225   22.2668 N   0  0  0  0  0  0  0  0  0  0  0  0
   35.4845    6.0068   21.3043 C   0  0  0  0  0  0  0  0  0  0  0  0
   36.3984    5.8494   20.3215 N   0  0  0  0  0  0  0  0  0  0  0  0
   36.9324    4.5976   20.3314 C   0  0  0  0  0  0  0  0  0  0  0  0
   36.0254    5.5285   15.5922 H   0  0  0  0  0  0  0  0  0  0  0  0
   37.1906    5.8386   14.2730 H   0  0  0  0  0  0  0  0  0  0  0  0
   38.4473    6.5940   16.0826 H   0  0  0  0  0  0  0  0  0  0  0  0
   39.2053    3.9084   15.2264 H   0  0  0  0  0  0  0  0  0  0  0  0
   41.1988    4.6200   15.8698 H   0  0  0  0  0  0  0  0  0  0  0  0
   38.7024    2.8549   17.2558 H   0  0  0  0  0  0  0  0  0  0  0  0
   40.5460    2.9798   18.6541 H   0  0  0  0  0  0  0  0  0  0  0  0
   39.2414    5.4544   18.7760 H   0  0  0  0  0  0  0  0  0  0  0  0
   38.8476    2.1008   19.4647 H   0  0  0  0  0  0  0  0  0  0  0  0
   34.6805    3.1759   23.9273 H   0  0  0  0  0  0  0  0  0  0  0  0
   35.8244    2.0556   23.1905 H   0  0  0  0  0  0  0  0  0  0  0  0
   34.9991    6.9832   21.3279 H   0  0  0  0  0  0  0  0  0  0  0  0
  1  2  2  0  0  0  0
  1  3  1  0  0  0  0
  1  4  1  0  0  0  0
  1  5  1  0  0  0  0
  5  6  1  0  0  0  0
  6  7  1  0  0  0  0
  6 24  1  0  0  0  0
  6 25  1  0  0  0  0
  7  8  1  0  0  0  0
  7  9  1  0  0  0  0
  7 26  1  6  0  0  0
  8 13  1  0  0  0  0
  9 10  1  0  0  0  0
  9 11  1  0  0  0  0
  9 27  1  6  0  0  0
 10 28  1  0  0  0  0
 11 12  1  0  0  0  0
 11 13  1  0  0  0  0
 11 29  1  6  0  0  0
 12 30  1  0  0  0  0
 13 14  1  0  0  0  0
 13 31  1  1  0  0  0
 14 15  2  0  0  0  0
 14 23  1  0  0  0  0
 15 16  1  0  0  0  0
 15 32  1  0  0  0  0
 16 17  1  0  0  0  0
 17 18  2  0  0  0  0
 17 23  1  0  0  0  0
 18 19  1  0  0  0  0
 18 20  1  0  0  0  0
 19 33  1  0  0  0  0
 19 34  1  0  0  0  0
 20 21  2  0  0  0  0
 21 22  1  0  0  0  0
 21 35  1  0  0  0  0
 22 23  2  0  0  0  0
M  CHG  1  14   1
M  END
$$$$
