ANH
 OpenBabel04041917193D

 55 56  0  0  1  0  0  0  0  0999 V2000
   -2.2316   17.9290   16.9352 N   0  0  0  0  0  0  0  0  0  0  0  0
   -3.4534   17.2440   17.3653 C   0  0  1  0  0  0  0  0  0  0  0  0
   -3.1860   16.2222   18.4949 C   0  0  0  0  0  0  0  0  0  0  0  0
   -4.6003   18.1662   17.8232 C   0  0  0  0  0  0  0  0  0  0  0  0
   -5.7647   17.8539   17.5671 O   0  0  0  0  0  0  0  0  0  0  0  0
   -4.3575   19.2311   18.6202 O   0  0  0  0  0  0  0  0  0  0  0  0
   -3.1103   19.5487   19.2523 C   0  0  0  0  0  0  0  0  0  0  0  0
   -2.3828   14.9848   18.1276 C   0  0  0  0  0  0  0  0  0  0  0  0
   -1.3838   14.5496   19.0076 C   0  0  0  0  0  0  0  0  0  0  0  0
   -0.6549   13.3958   18.7392 C   0  0  0  0  0  0  0  0  0  0  0  0
   -0.9170   12.6526   17.5875 C   0  0  0  0  0  0  0  0  0  0  0  0
   -1.9331   13.0298   16.6900 C   0  0  0  0  0  0  0  0  0  0  0  0
   -2.6652   14.2020   16.9913 C   0  0  0  0  0  0  0  0  0  0  0  0
   -2.2188   12.2158   15.4775 C   0  0  0  0  0  0  0  0  0  0  0  0
   -2.8287   12.7451   14.4371 N   0  0  0  0  0  0  0  0  0  0  0  0
   -1.8537   10.9505   15.4137 N   0  0  0  0  0  0  0  0  0  0  0  0
   -2.2061   18.6369   15.7374 C   0  0  0  0  0  0  0  0  0  0  0  0
   -0.8781   19.3390   15.4802 C   0  0  0  0  0  0  0  0  0  0  0  0
   -0.5997   19.7062   14.0970 N   0  0  0  0  0  0  0  0  0  0  0  0
   -3.1688   18.6787   14.9808 O   0  0  0  0  0  0  0  0  0  0  0  0
    3.5570   24.1013   16.8600 C   0  0  0  0  0  0  0  0  0  0  0  0
    2.5218   23.3868   16.0400 C   0  0  0  0  0  0  0  0  0  0  0  0
    2.8713   22.4762   15.0324 C   0  0  0  0  0  0  0  0  0  0  0  0
    1.8779   21.8371   14.2759 C   0  0  0  0  0  0  0  0  0  0  0  0
    0.5345   22.1162   14.5367 C   0  0  0  0  0  0  0  0  0  0  0  0
    0.1773   23.0320   15.5292 C   0  0  0  0  0  0  0  0  0  0  0  0
    1.1689   23.6577   16.2789 C   0  0  0  0  0  0  0  0  0  0  0  0
   -0.7525   21.3068   13.6193 S   0  0  0  0  0  0  0  0  0  0  0  0
   -0.4008   21.3464   12.2195 O   0  0  0  0  0  0  0  0  0  0  0  0
   -2.0340   21.7805   14.1091 O   0  0  0  0  0  0  0  0  0  0  0  0
   -1.3489   17.6362   17.3365 H   0  0  0  0  0  0  0  0  0  0  0  0
   -3.8413   16.7239   16.4800 H   0  0  0  0  0  0  0  0  0  0  0  0
   -4.1280   15.8856   18.9468 H   0  0  0  0  0  0  0  0  0  0  0  0
   -2.6404   16.7361   19.2946 H   0  0  0  0  0  0  0  0  0  0  0  0
   -3.2796   20.4177   19.8953 H   0  0  0  0  0  0  0  0  0  0  0  0
   -2.3571   19.8280   18.5157 H   0  0  0  0  0  0  0  0  0  0  0  0
   -2.7719   18.7337   19.8945 H   0  0  0  0  0  0  0  0  0  0  0  0
   -1.1704   15.0978   19.9256 H   0  0  0  0  0  0  0  0  0  0  0  0
    0.1180   13.0732   19.4356 H   0  0  0  0  0  0  0  0  0  0  0  0
   -0.2985   11.7745   17.4189 H   0  0  0  0  0  0  0  0  0  0  0  0
   -3.4949   14.5031   16.3555 H   0  0  0  0  0  0  0  0  0  0  0  0
   -3.0361   12.2110   13.6030 H   0  0  0  0  0  0  0  0  0  0  0  0
   -1.4131   10.4860   16.1990 H   0  0  0  0  0  0  0  0  0  0  0  0
   -2.0185   10.3800   14.5950 H   0  0  0  0  0  0  0  0  0  0  0  0
   -0.0764   18.6534   15.7774 H   0  0  0  0  0  0  0  0  0  0  0  0
   -0.8208   20.2025   16.1503 H   0  0  0  0  0  0  0  0  0  0  0  0
   -0.8516   19.0603   13.3492 H   0  0  0  0  0  0  0  0  0  0  0  0
    4.5734   23.8080   16.5801 H   0  0  0  0  0  0  0  0  0  0  0  0
    3.4183   23.8706   17.9217 H   0  0  0  0  0  0  0  0  0  0  0  0
    3.4651   25.1834   16.7186 H   0  0  0  0  0  0  0  0  0  0  0  0
    3.9187   22.2686   14.8222 H   0  0  0  0  0  0  0  0  0  0  0  0
    2.1592   21.1409   13.4900 H   0  0  0  0  0  0  0  0  0  0  0  0
   -0.8665   23.2708   15.7227 H   0  0  0  0  0  0  0  0  0  0  0  0
    0.8828   24.3762   17.0450 H   0  0  0  0  0  0  0  0  0  0  0  0
   -3.1102   13.7185   14.4227 H   0  0  0  0  0  0  0  0  0  0  0  0
  1  2  1  0  0  0  0
  1 17  1  0  0  0  0
  1 31  1  0  0  0  0
  2  3  1  0  0  0  0
  2  4  1  0  0  0  0
  2 32  1  6  0  0  0
  3  8  1  0  0  0  0
  3 33  1  0  0  0  0
  3 34  1  0  0  0  0
  4  5  2  0  0  0  0
  4  6  1  0  0  0  0
  6  7  1  0  0  0  0
  7 35  1  0  0  0  0
  7 36  1  0  0  0  0
  7 37  1  0  0  0  0
  8  9  2  0  0  0  0
  8 13  1  0  0  0  0
  9 10  1  0  0  0  0
  9 38  1  0  0  0  0
 10 11  2  0  0  0  0
 10 39  1  0  0  0  0
 11 12  1  0  0  0  0
 11 40  1  0  0  0  0
 12 13  2  0  0  0  0
 12 14  1  0  0  0  0
 13 41  1  0  0  0  0
 14 15  2  0  0  0  0
 14 16  1  0  0  0  0
 15 42  1  0  0  0  0
 15 55  1  0  0  0  0
 16 43  1  0  0  0  0
 16 44  1  0  0  0  0
 17 18  1  0  0  0  0
 17 20  2  0  0  0  0
 18 19  1  0  0  0  0
 18 45  1  0  0  0  0
 18 46  1  0  0  0  0
 19 28  1  0  0  0  0
 19 47  1  0  0  0  0
 21 22  1  0  0  0  0
 21 48  1  0  0  0  0
 21 49  1  0  0  0  0
 21 50  1  0  0  0  0
 22 23  2  0  0  0  0
 22 27  1  0  0  0  0
 23 24  1  0  0  0  0
 23 51  1  0  0  0  0
 24 25  2  0  0  0  0
 24 52  1  0  0  0  0
 25 26  1  0  0  0  0
 25 28  1  0  0  0  0
 26 27  2  0  0  0  0
 26 53  1  0  0  0  0
 27 54  1  0  0  0  0
 28 29  2  0  0  0  0
 28 30  2  0  0  0  0
M  END
$$$$
