ANH
 OpenBabel04041917183D

 55 56  0  0  1  0  0  0  0  0999 V2000
   -2.1513   19.1701   17.7648 N   0  0  0  0  0  0  0  0  0  0  0  0
   -3.3093   18.4300   18.2869 C   0  0  1  0  0  0  0  0  0  0  0  0
   -2.8312   17.3927   19.3230 C   0  0  0  0  0  0  0  0  0  0  0  0
   -4.4395   19.2962   18.9209 C   0  0  0  0  0  0  0  0  0  0  0  0
   -5.6112   18.9704   18.7510 O   0  0  0  0  0  0  0  0  0  0  0  0
   -4.1388   20.3011   19.7807 O   0  0  0  0  0  0  0  0  0  0  0  0
   -2.8348   20.7136   20.2150 C   0  0  0  0  0  0  0  0  0  0  0  0
   -1.9791   16.2361   18.8025 C   0  0  0  0  0  0  0  0  0  0  0  0
   -0.8958   15.7987   19.5728 C   0  0  0  0  0  0  0  0  0  0  0  0
   -0.1178   14.7134   19.1663 C   0  0  0  0  0  0  0  0  0  0  0  0
   -0.4205   14.0366   17.9845 C   0  0  0  0  0  0  0  0  0  0  0  0
   -1.5147   14.4174   17.1815 C   0  0  0  0  0  0  0  0  0  0  0  0
   -2.2826   15.5257   17.6120 C   0  0  0  0  0  0  0  0  0  0  0  0
   -1.8227   13.6769   15.9274 C   0  0  0  0  0  0  0  0  0  0  0  0
   -2.4225   14.2582   14.9123 N   0  0  0  0  0  0  0  0  0  0  0  0
   -1.4830   12.4157   15.7702 N   0  0  0  0  0  0  0  0  0  0  0  0
   -2.2509   20.0458   16.6991 C   0  0  0  0  0  0  0  0  0  0  0  0
   -0.9734   20.8246   16.4176 C   0  0  0  0  0  0  0  0  0  0  0  0
   -0.8247   21.3632   15.0771 N   0  0  0  0  0  0  0  0  0  0  0  0
   -3.2997   20.1973   16.0838 O   0  0  0  0  0  0  0  0  0  0  0  0
    3.1214   25.4495   18.6240 C   0  0  0  0  0  0  0  0  0  0  0  0
    2.1633   24.8179   17.6427 C   0  0  0  0  0  0  0  0  0  0  0  0
    2.6034   24.0280   16.5764 C   0  0  0  0  0  0  0  0  0  0  0  0
    1.6766   23.4671   15.6716 C   0  0  0  0  0  0  0  0  0  0  0  0
    0.3029   23.7126   15.8645 C   0  0  0  0  0  0  0  0  0  0  0  0
   -0.1204   24.4960   16.9337 C   0  0  0  0  0  0  0  0  0  0  0  0
    0.7939   25.0471   17.8241 C   0  0  0  0  0  0  0  0  0  0  0  0
   -0.9507   23.0108   14.7915 S   0  0  0  0  0  0  0  0  0  0  0  0
   -0.5531   23.2147   13.4193 O   0  0  0  0  0  0  0  0  0  0  0  0
   -2.2429   23.4389   15.2862 O   0  0  0  0  0  0  0  0  0  0  0  0
   -1.2323   18.8893   18.0824 H   0  0  0  0  0  0  0  0  0  0  0  0
   -3.7881   17.9095   17.4441 H   0  0  0  0  0  0  0  0  0  0  0  0
   -3.6765   16.9786   19.8859 H   0  0  0  0  0  0  0  0  0  0  0  0
   -2.2141   17.9302   20.0531 H   0  0  0  0  0  0  0  0  0  0  0  0
   -2.9475   21.5584   20.9059 H   0  0  0  0  0  0  0  0  0  0  0  0
   -2.2384   21.0628   19.3744 H   0  0  0  0  0  0  0  0  0  0  0  0
   -2.3375   19.9137   20.7663 H   0  0  0  0  0  0  0  0  0  0  0  0
   -0.6520   16.2953   20.5155 H   0  0  0  0  0  0  0  0  0  0  0  0
    0.7288   14.3979   19.7788 H   0  0  0  0  0  0  0  0  0  0  0  0
    0.2284   13.2101   17.6990 H   0  0  0  0  0  0  0  0  0  0  0  0
   -3.1475   15.8314   17.0332 H   0  0  0  0  0  0  0  0  0  0  0  0
   -2.6025   13.7565   14.0483 H   0  0  0  0  0  0  0  0  0  0  0  0
   -1.0474   11.8842   16.5097 H   0  0  0  0  0  0  0  0  0  0  0  0
   -1.6869   11.9216   14.9122 H   0  0  0  0  0  0  0  0  0  0  0  0
   -0.1180   20.1591   16.5767 H   0  0  0  0  0  0  0  0  0  0  0  0
   -0.9078   21.6187   17.1703 H   0  0  0  0  0  0  0  0  0  0  0  0
   -0.9156   20.7697   14.2553 H   0  0  0  0  0  0  0  0  0  0  0  0
    4.1603   25.2090   18.3884 H   0  0  0  0  0  0  0  0  0  0  0  0
    2.9093   25.0918   19.6387 H   0  0  0  0  0  0  0  0  0  0  0  0
    3.0115   26.5409   18.6109 H   0  0  0  0  0  0  0  0  0  0  0  0
    3.6705   23.8619   16.4296 H   0  0  0  0  0  0  0  0  0  0  0  0
    2.0277   22.8620   14.8487 H   0  0  0  0  0  0  0  0  0  0  0  0
   -1.1866   24.6889   17.0974 H   0  0  0  0  0  0  0  0  0  0  0  0
    0.4448   25.6642   18.6503 H   0  0  0  0  0  0  0  0  0  0  0  0
   -2.6853   15.2345   14.9317 H   0  0  0  0  0  0  0  0  0  0  0  0
  1  2  1  0  0  0  0
  1 17  1  0  0  0  0
  1 31  1  0  0  0  0
  2  3  1  0  0  0  0
  2  4  1  0  0  0  0
  2 32  1  6  0  0  0
  3  8  1  0  0  0  0
  3 33  1  0  0  0  0
  3 34  1  0  0  0  0
  4  5  2  0  0  0  0
  4  6  1  0  0  0  0
  6  7  1  0  0  0  0
  7 35  1  0  0  0  0
  7 36  1  0  0  0  0
  7 37  1  0  0  0  0
  8  9  2  0  0  0  0
  8 13  1  0  0  0  0
  9 10  1  0  0  0  0
  9 38  1  0  0  0  0
 10 11  2  0  0  0  0
 10 39  1  0  0  0  0
 11 12  1  0  0  0  0
 11 40  1  0  0  0  0
 12 13  2  0  0  0  0
 12 14  1  0  0  0  0
 13 41  1  0  0  0  0
 14 15  2  0  0  0  0
 14 16  1  0  0  0  0
 15 42  1  0  0  0  0
 15 55  1  0  0  0  0
 16 43  1  0  0  0  0
 16 44  1  0  0  0  0
 17 18  1  0  0  0  0
 17 20  2  0  0  0  0
 18 19  1  0  0  0  0
 18 45  1  0  0  0  0
 18 46  1  0  0  0  0
 19 28  1  0  0  0  0
 19 47  1  0  0  0  0
 21 22  1  0  0  0  0
 21 48  1  0  0  0  0
 21 49  1  0  0  0  0
 21 50  1  0  0  0  0
 22 23  2  0  0  0  0
 22 27  1  0  0  0  0
 23 24  1  0  0  0  0
 23 51  1  0  0  0  0
 24 25  2  0  0  0  0
 24 52  1  0  0  0  0
 25 26  1  0  0  0  0
 25 28  1  0  0  0  0
 26 27  2  0  0  0  0
 26 53  1  0  0  0  0
 27 54  1  0  0  0  0
 28 29  2  0  0  0  0
 28 30  2  0  0  0  0
M  END
$$$$
