ANN
 OpenBabel04041916533D

 18 18  0  0  0  0  0  0  0  0999 V2000
   46.4533   30.7927    7.8216 C   0  0  0  0  0  0  0  0  0  0  0  0
   46.5055   30.4660    6.4394 O   0  0  0  0  0  0  0  0  0  0  0  0
   47.5712   30.9369    5.7197 C   0  0  0  0  0  0  0  0  0  0  0  0
   47.6056   30.5379    4.3786 C   0  0  0  0  0  0  0  0  0  0  0  0
   48.6421   30.9505    3.5307 C   0  0  0  0  0  0  0  0  0  0  0  0
   49.6710   31.7748    4.0028 C   0  0  0  0  0  0  0  0  0  0  0  0
   49.6229   32.1733    5.3500 C   0  0  0  0  0  0  0  0  0  0  0  0
   48.5876   31.7583    6.2013 C   0  0  0  0  0  0  0  0  0  0  0  0
   50.7994   32.2245    3.0920 C   0  0  0  0  0  0  0  0  0  0  0  0
   51.6904   32.9775    3.6019 O   0  0  0  0  0  0  0  0  0  0  0  0
   50.7659   31.8143    1.8889 O   0  0  0  0  0  0  0  0  0  0  0  0
   45.5448   30.3431    8.2359 H   0  0  0  0  0  0  0  0  0  0  0  0
   46.3819   31.8765    7.9792 H   0  0  0  0  0  0  0  0  0  0  0  0
   47.3069   30.3713    8.3660 H   0  0  0  0  0  0  0  0  0  0  0  0
   46.8217   29.8977    3.9823 H   0  0  0  0  0  0  0  0  0  0  0  0
   48.6566   30.6304    2.4897 H   0  0  0  0  0  0  0  0  0  0  0  0
   50.4133   32.8191    5.7310 H   0  0  0  0  0  0  0  0  0  0  0  0
   48.6118   32.1022    7.2289 H   0  0  0  0  0  0  0  0  0  0  0  0
  1  2  1  0  0  0  0
  1 12  1  0  0  0  0
  1 13  1  0  0  0  0
  1 14  1  0  0  0  0
  2  3  1  0  0  0  0
  3  4  2  0  0  0  0
  3  8  1  0  0  0  0
  4  5  1  0  0  0  0
  4 15  1  0  0  0  0
  5  6  2  0  0  0  0
  5 16  1  0  0  0  0
  6  7  1  0  0  0  0
  6  9  1  0  0  0  0
  7  8  2  0  0  0  0
  7 17  1  0  0  0  0
  8 18  1  0  0  0  0
  9 10  2  0  0  0  0
  9 11  1  0  0  0  0
M  END
$$$$
