ANP
 OpenBabel04041914073D

 44 46  0  0  1  0  0  0  0  0999 V2000
   20.8417   29.3219   71.7007 P   0  0  0  0  0  0  0  0  0  0  0  0
   21.6582   29.0279   70.4592 O   0  0  0  0  0  0  0  0  0  0  0  0
   21.3766   30.5775   72.4080 O   0  0  0  0  0  0  0  0  0  0  0  0
   20.6405   28.1611   72.6304 O   0  0  0  0  0  0  0  0  0  0  0  0
   17.9672   29.0439   70.6823 P   0  0  1  0  0  0  0  0  0  0  0  0
   18.1818   28.3183   69.3564 O   0  0  0  0  0  0  0  0  0  0  0  0
   17.3046   28.2623   71.7961 O   0  0  0  0  0  0  0  0  0  0  0  0
   19.3425   29.9112   71.1332 N   0  0  0  0  0  0  0  0  0  0  0  0
   16.2623   31.3899   71.1765 P   0  0  1  0  0  0  0  0  0  0  0  0
   15.0266   30.9463   71.9398 O   0  0  0  0  0  0  0  0  0  0  0  0
   17.2702   32.3236   71.8145 O   0  0  0  0  0  0  0  0  0  0  0  0
   16.9328   30.2414   70.2824 O   0  0  0  0  0  0  0  0  0  0  0  0
   15.6023   32.3465   69.9927 O   0  0  0  0  0  0  0  0  0  0  0  0
   16.4504   32.7757   68.9419 C   0  0  0  0  0  0  0  0  0  0  0  0
   16.2000   34.2447   68.5233 C   0  0  1  0  0  0  0  0  0  0  0  0
   14.8805   34.3841   67.9332 O   0  0  0  0  0  0  0  0  0  0  0  0
   16.2961   35.3023   69.6267 C   0  0  1  0  0  0  0  0  0  0  0  0
   17.5931   35.8994   69.7467 O   0  0  0  0  0  0  0  0  0  0  0  0
   15.3223   36.3989   69.1900 C   0  0  1  0  0  0  0  0  0  0  0  0
   15.9741   37.5261   68.5558 O   0  0  0  0  0  0  0  0  0  0  0  0
   14.3859   35.6999   68.2097 C   0  0  2  0  0  0  0  0  0  0  0  0
   13.0214   35.6013   68.6943 N   0  3  0  0  0  0  0  0  0  0  0  0
   12.5420   34.7452   69.6451 C   0  0  0  0  0  0  0  0  0  0  0  0
   11.2709   34.9330   69.9055 N   0  0  0  0  0  0  0  0  0  0  0  0
   10.8934   35.9550   69.0710 C   0  0  0  0  0  0  0  0  0  0  0  0
    9.6680   36.6038   68.8711 C   0  0  0  0  0  0  0  0  0  0  0  0
    8.5256   36.2629   69.5707 N   0  0  0  0  0  0  0  0  0  0  0  0
    9.5965   37.6110   67.9715 N   0  0  0  0  0  0  0  0  0  0  0  0
   10.7299   37.9426   67.3096 C   0  0  0  0  0  0  0  0  0  0  0  0
   11.9652   37.4051   67.4176 N   0  0  0  0  0  0  0  0  0  0  0  0
   11.9718   36.4018   68.3195 C   0  0  0  0  0  0  0  0  0  0  0  0
   19.1724   30.8327   71.5020 H   0  0  0  0  0  0  0  0  0  0  0  0
   16.2051   32.1302   68.0925 H   0  0  0  0  0  0  0  0  0  0  0  0
   17.5052   32.6341   69.1972 H   0  0  0  0  0  0  0  0  0  0  0  0
   16.9187   34.4813   67.7283 H   0  0  0  0  0  0  0  0  0  0  0  0
   15.9755   34.8839   70.5882 H   0  0  0  0  0  0  0  0  0  0  0  0
   17.7159   36.1127   70.6892 H   0  0  0  0  0  0  0  0  0  0  0  0
   14.8051   36.8320   70.0513 H   0  0  0  0  0  0  0  0  0  0  0  0
   16.7334   37.7395   69.1321 H   0  0  0  0  0  0  0  0  0  0  0  0
   14.3557   36.2396   67.2530 H   0  0  0  0  0  0  0  0  0  0  0  0
   13.1915   33.9959   70.1240 H   0  0  0  0  0  0  0  0  0  0  0  0
    7.6575   36.7083   69.3363 H   0  0  0  0  0  0  0  0  0  0  0  0
    8.5855   35.4617   70.1894 H   0  0  0  0  0  0  0  0  0  0  0  0
   10.6443   38.7640   66.6170 H   0  0  0  0  0  0  0  0  0  0  0  0
  1  2  2  0  0  0  0
  1  3  1  0  0  0  0
  1  4  1  0  0  0  0
  1  8  1  0  0  0  0
  5  6  2  6  0  0  0
  5  7  1  0  0  0  0
  5  8  1  0  0  0  0
  5 12  1  0  0  0  0
  8 32  1  0  0  0  0
  9 10  2  1  0  0  0
  9 11  1  0  0  0  0
  9 12  1  0  0  0  0
  9 13  1  0  0  0  0
 13 14  1  0  0  0  0
 14 15  1  0  0  0  0
 14 33  1  0  0  0  0
 14 34  1  0  0  0  0
 15 16  1  0  0  0  0
 15 17  1  0  0  0  0
 15 35  1  6  0  0  0
 16 21  1  0  0  0  0
 17 18  1  0  0  0  0
 17 19  1  0  0  0  0
 17 36  1  1  0  0  0
 18 37  1  0  0  0  0
 19 20  1  0  0  0  0
 19 21  1  0  0  0  0
 19 38  1  1  0  0  0
 20 39  1  0  0  0  0
 21 22  1  0  0  0  0
 21 40  1  6  0  0  0
 22 23  2  0  0  0  0
 22 31  1  0  0  0  0
 23 24  1  0  0  0  0
 23 41  1  0  0  0  0
 24 25  1  0  0  0  0
 25 26  2  0  0  0  0
 25 31  1  0  0  0  0
 26 27  1  0  0  0  0
 26 28  1  0  0  0  0
 27 42  1  0  0  0  0
 27 43  1  0  0  0  0
 28 29  2  0  0  0  0
 29 30  1  0  0  0  0
 29 44  1  0  0  0  0
 30 31  2  0  0  0  0
M  CHG  1  22   1
M  END
$$$$
