AOI
 OpenBabel04041917363D

 51 54  0  0  1  0  0  0  0  0999 V2000
   22.9749   -7.5489   41.0947 C   0  0  0  0  0  0  0  0  0  0  0  0
   24.3802   -8.1071   40.7898 C   0  0  0  0  0  0  0  0  0  0  0  0
   25.0104   -8.7626   42.0162 C   0  0  1  0  0  0  0  0  0  0  0  0
   25.3463   -7.7186   42.9294 O   0  0  0  0  0  0  0  0  0  0  0  0
   24.0723   -9.7792   42.6788 C   0  0  0  0  0  0  0  0  0  0  0  0
   22.6677   -9.2057   42.9670 C   0  0  2  0  0  0  0  0  0  0  0  0
   21.7590  -10.2534   43.6338 C   0  0  0  0  0  0  0  0  0  0  0  0
   20.3714   -9.6757   43.9412 C   0  0  0  0  0  0  0  0  0  0  0  0
   19.6729   -9.1009   42.6993 C   0  0  2  0  0  0  0  0  0  0  0  0
   20.5896   -8.0213   42.0283 C   0  0  1  0  0  0  0  0  0  0  0  0
   22.0092   -8.6249   41.6685 C   0  0  1  0  0  0  0  0  0  0  0  0
   19.8510   -7.4037   40.8080 C   0  0  0  0  0  0  0  0  0  0  0  0
   18.4586   -6.8245   41.1398 C   0  0  0  0  0  0  0  0  0  0  0  0
   17.5693   -7.8763   41.7968 C   0  0  1  0  0  0  0  0  0  0  0  0
   18.3100   -8.4655   43.0323 C   0  0  1  0  0  0  0  0  0  0  0  0
   17.2175   -9.2911   43.7130 C   0  0  0  0  0  0  0  0  0  0  0  0
   16.0262   -8.3059   43.7116 C   0  0  0  0  0  0  0  0  0  0  0  0
   16.3099   -7.3975   42.5245 C   0  0  0  0  0  0  0  0  0  0  0  0
   15.5967   -6.4361   42.1881 O   0  0  0  0  0  0  0  0  0  0  0  0
   17.1119   -8.9302   40.7692 C   0  0  0  0  0  0  0  0  0  0  0  0
   21.8332   -9.7214   40.5879 C   0  0  0  0  0  0  0  0  0  0  0  0
   22.5618   -7.1299   40.1685 H   0  0  0  0  0  0  0  0  0  0  0  0
   23.0772   -6.7271   41.8163 H   0  0  0  0  0  0  0  0  0  0  0  0
   25.0279   -7.2913   40.4426 H   0  0  0  0  0  0  0  0  0  0  0  0
   24.3151   -8.8359   39.9736 H   0  0  0  0  0  0  0  0  0  0  0  0
   25.9319   -9.2836   41.7261 H   0  0  0  0  0  0  0  0  0  0  0  0
   25.7433   -8.1015   43.7287 H   0  0  0  0  0  0  0  0  0  0  0  0
   24.5382  -10.1233   43.6115 H   0  0  0  0  0  0  0  0  0  0  0  0
   23.9835  -10.6448   42.0116 H   0  0  0  0  0  0  0  0  0  0  0  0
   22.8013   -8.3846   43.6904 H   0  0  0  0  0  0  0  0  0  0  0  0
   22.2039  -10.6140   44.5733 H   0  0  0  0  0  0  0  0  0  0  0  0
   21.6356  -11.1233   42.9781 H   0  0  0  0  0  0  0  0  0  0  0  0
   20.4954   -8.8844   44.6914 H   0  0  0  0  0  0  0  0  0  0  0  0
   19.7515  -10.4677   44.3774 H   0  0  0  0  0  0  0  0  0  0  0  0
   19.5041   -9.9151   41.9901 H   0  0  0  0  0  0  0  0  0  0  0  0
   20.7493   -7.2098   42.7592 H   0  0  0  0  0  0  0  0  0  0  0  0
   19.7236   -8.1807   40.0456 H   0  0  0  0  0  0  0  0  0  0  0  0
   20.4697   -6.6153   40.3677 H   0  0  0  0  0  0  0  0  0  0  0  0
   17.9768   -6.4584   40.2200 H   0  0  0  0  0  0  0  0  0  0  0  0
   18.5719   -5.9610   41.8093 H   0  0  0  0  0  0  0  0  0  0  0  0
   18.5446   -7.6430   43.7316 H   0  0  0  0  0  0  0  0  0  0  0  0
   17.4706   -9.5951   44.7339 H   0  0  0  0  0  0  0  0  0  0  0  0
   16.9688  -10.2005   43.1487 H   0  0  0  0  0  0  0  0  0  0  0  0
   16.0270   -7.7182   44.6309 H   0  0  0  0  0  0  0  0  0  0  0  0
   15.0752   -8.8280   43.5816 H   0  0  0  0  0  0  0  0  0  0  0  0
   16.5838   -8.4589   39.9283 H   0  0  0  0  0  0  0  0  0  0  0  0
   16.4130   -9.6545   41.2079 H   0  0  0  0  0  0  0  0  0  0  0  0
   17.9584   -9.4909   40.3654 H   0  0  0  0  0  0  0  0  0  0  0  0
   22.7868  -10.1683   40.3019 H   0  0  0  0  0  0  0  0  0  0  0  0
   21.3909   -9.3140   39.6720 H   0  0  0  0  0  0  0  0  0  0  0  0
   21.1932  -10.5353   40.9335 H   0  0  0  0  0  0  0  0  0  0  0  0
  1  2  1  0  0  0  0
  1 11  1  0  0  0  0
  1 22  1  0  0  0  0
  1 23  1  0  0  0  0
  2  3  1  0  0  0  0
  2 24  1  0  0  0  0
  2 25  1  0  0  0  0
  3  4  1  0  0  0  0
  3  5  1  0  0  0  0
  3 26  1  6  0  0  0
  4 27  1  0  0  0  0
  5  6  1  0  0  0  0
  5 28  1  0  0  0  0
  5 29  1  0  0  0  0
  6  7  1  0  0  0  0
  6 11  1  0  0  0  0
  6 30  1  1  0  0  0
  7  8  1  0  0  0  0
  7 31  1  0  0  0  0
  7 32  1  0  0  0  0
  8  9  1  0  0  0  0
  8 33  1  0  0  0  0
  8 34  1  0  0  0  0
  9 10  1  0  0  0  0
  9 15  1  0  0  0  0
  9 35  1  6  0  0  0
 10 11  1  0  0  0  0
 10 12  1  0  0  0  0
 10 36  1  1  0  0  0
 11 21  1  6  0  0  0
 12 13  1  0  0  0  0
 12 37  1  0  0  0  0
 12 38  1  0  0  0  0
 13 14  1  0  0  0  0
 13 39  1  0  0  0  0
 13 40  1  0  0  0  0
 14 15  1  0  0  0  0
 14 18  1  0  0  0  0
 14 20  1  6  0  0  0
 15 16  1  0  0  0  0
 15 41  1  1  0  0  0
 16 17  1  0  0  0  0
 16 42  1  0  0  0  0
 16 43  1  0  0  0  0
 17 18  1  0  0  0  0
 17 44  1  0  0  0  0
 17 45  1  0  0  0  0
 18 19  2  0  0  0  0
 20 46  1  0  0  0  0
 20 47  1  0  0  0  0
 20 48  1  0  0  0  0
 21 49  1  0  0  0  0
 21 50  1  0  0  0  0
 21 51  1  0  0  0  0
M  END
$$$$
