APQ
 OpenBabel04041915163D

 34 35  0  0  0  0  0  0  0  0999 V2000
   13.0250   14.7323   18.0470 C   0  0  0  0  0  0  0  0  0  0  0  0
   12.3412   15.9960   17.5189 C   0  0  0  0  0  0  0  0  0  0  0  0
   11.7857   15.8229   16.1148 C   0  0  0  0  0  0  0  0  0  0  0  0
   14.8347   14.8758   18.3609 S   0  0  0  0  0  0  0  0  0  0  0  0
   14.9488   16.5198   19.1513 C   0  0  0  0  0  0  0  0  0  0  0  0
   16.3339   16.8597   19.6685 C   0  0  0  0  0  0  0  0  0  0  0  0
   16.5478   17.0528   21.0448 C   0  0  0  0  0  0  0  0  0  0  0  0
   15.4714   16.8974   21.9284 N   0  0  0  0  0  0  0  0  0  0  0  0
   15.6557   17.0985   23.2005 C   0  0  0  0  0  0  0  0  0  0  0  0
   16.8715   17.4442   23.7053 N   0  3  0  0  0  0  0  0  0  0  0  0
   17.9838   17.6637   22.9311 C   0  0  0  0  0  0  0  0  0  0  0  0
   19.0556   18.0184   23.4256 O   0  0  0  0  0  0  0  0  0  0  0  0
   17.8172   17.4484   21.4848 C   0  0  0  0  0  0  0  0  0  0  0  0
   18.8713   17.6665   20.5911 C   0  0  0  0  0  0  0  0  0  0  0  0
   18.6774   17.4685   19.2227 C   0  0  0  0  0  0  0  0  0  0  0  0
   19.6464   17.8867   18.3030 N   0  0  0  0  0  0  0  0  0  0  0  0
   17.4019   17.0887   18.7771 C   0  0  0  0  0  0  0  0  0  0  0  0
   14.6147   16.9773   24.0386 N   0  0  0  0  0  0  0  0  0  0  0  0
   12.5336   14.3995   18.9698 H   0  0  0  0  0  0  0  0  0  0  0  0
   12.9033   13.9074   17.3337 H   0  0  0  0  0  0  0  0  0  0  0  0
   13.0066   16.8563   17.4860 H   0  0  0  0  0  0  0  0  0  0  0  0
   11.5194   16.2680   18.1929 H   0  0  0  0  0  0  0  0  0  0  0  0
   11.3602   16.7701   15.7661 H   0  0  0  0  0  0  0  0  0  0  0  0
   10.9975   15.0650   16.0888 H   0  0  0  0  0  0  0  0  0  0  0  0
   12.5778   15.5327   15.4180 H   0  0  0  0  0  0  0  0  0  0  0  0
   14.1921   16.5712   19.9394 H   0  0  0  0  0  0  0  0  0  0  0  0
   14.7060   17.2968   18.4219 H   0  0  0  0  0  0  0  0  0  0  0  0
   16.9744   17.5968   24.6961 H   0  0  0  0  0  0  0  0  0  0  0  0
   19.8283   18.0104   20.9663 H   0  0  0  0  0  0  0  0  0  0  0  0
   19.5634   17.5081   17.3651 H   0  0  0  0  0  0  0  0  0  0  0  0
   20.6051   17.9131   18.6422 H   0  0  0  0  0  0  0  0  0  0  0  0
   17.2237   16.9928   17.7069 H   0  0  0  0  0  0  0  0  0  0  0  0
   13.7670   16.5836   23.6400 H   0  0  0  0  0  0  0  0  0  0  0  0
   14.7151   16.9380   25.0371 H   0  0  0  0  0  0  0  0  0  0  0  0
  1  4  1  0  0  0  0
  1  2  1  0  0  0  0
  1 19  1  0  0  0  0
  1 20  1  0  0  0  0
  2  3  1  0  0  0  0
  2 21  1  0  0  0  0
  2 22  1  0  0  0  0
  3 23  1  0  0  0  0
  3 24  1  0  0  0  0
  3 25  1  0  0  0  0
  4  5  1  0  0  0  0
  5  6  1  0  0  0  0
  5 26  1  0  0  0  0
  5 27  1  0  0  0  0
  6 17  2  0  0  0  0
  6  7  1  0  0  0  0
  7 13  2  0  0  0  0
  7  8  1  0  0  0  0
  8  9  2  0  0  0  0
  9 18  1  0  0  0  0
  9 10  1  0  0  0  0
 10 11  1  0  0  0  0
 10 28  1  0  0  0  0
 11 13  1  0  0  0  0
 11 12  2  0  0  0  0
 13 14  1  0  0  0  0
 14 15  2  0  0  0  0
 14 29  1  0  0  0  0
 15 17  1  0  0  0  0
 15 16  1  0  0  0  0
 16 30  1  0  0  0  0
 16 31  1  0  0  0  0
 17 32  1  0  0  0  0
 18 33  1  0  0  0  0
 18 34  1  0  0  0  0
M  CHG  1  10   1
M  END
$$$$
