APR
 OpenBabel04041916553D

 57 60  0  0  1  0  0  0  0  0999 V2000
  -13.2131   32.4925  -34.4322 N   0  0  0  0  0  0  0  0  0  0  0  0
  -12.2381   31.5977  -34.7217 C   0  0  0  0  0  0  0  0  0  0  0  0
  -11.8925   31.1313  -35.9356 N   0  0  0  0  0  0  0  0  0  0  0  0
  -12.6453   31.6811  -36.9138 C   0  0  0  0  0  0  0  0  0  0  0  0
  -13.6608   32.6138  -36.7688 C   0  0  0  0  0  0  0  0  0  0  0  0
  -13.9559   33.0380  -35.4484 C   0  0  0  0  0  0  0  0  0  0  0  0
  -14.9577   33.9490  -35.1294 N   0  0  0  0  0  0  0  0  0  0  0  0
  -14.1979   32.9260  -38.0145 N   0  0  0  0  0  0  0  0  0  0  0  0
  -13.5027   32.2204  -38.8932 C   0  0  0  0  0  0  0  0  0  0  0  0
  -12.5659   31.4286  -38.2691 N   0  3  0  0  0  0  0  0  0  0  0  0
  -11.5366   30.5846  -38.8601 C   0  0  1  0  0  0  0  0  0  0  0  0
  -11.9317   29.7490  -40.0711 C   0  0  2  0  0  0  0  0  0  0  0  0
  -12.3222   28.4159  -39.7101 O   0  0  0  0  0  0  0  0  0  0  0  0
  -10.6978   29.7881  -40.9701 C   0  0  2  0  0  0  0  0  0  0  0  0
   -9.8443   28.6533  -40.7490 O   0  0  0  0  0  0  0  0  0  0  0  0
  -10.4821   31.4611  -39.2534 O   0  0  0  0  0  0  0  0  0  0  0  0
   -9.9603   31.0672  -40.5387 C   0  0  2  0  0  0  0  0  0  0  0  0
  -10.0750   32.2537  -41.5382 C   0  0  0  0  0  0  0  0  0  0  0  0
   -9.5264   31.8550  -42.7857 O   0  0  0  0  0  0  0  0  0  0  0  0
   -9.5186   32.8360  -44.0394 P   0  0  2  0  0  0  0  0  0  0  0  0
  -10.9246   33.4539  -44.1393 O   0  0  0  0  0  0  0  0  0  0  0  0
   -8.9786   32.1025  -45.2417 O   0  0  0  0  0  0  0  0  0  0  0  0
   -8.5570   34.0360  -43.5383 O   0  0  0  0  0  0  0  0  0  0  0  0
   -6.9480   34.0401  -43.3987 P   0  0  2  0  0  0  0  0  0  0  0  0
   -6.4100   32.7046  -43.2249 O   0  0  0  0  0  0  0  0  0  0  0  0
   -6.5728   35.1326  -42.4490 O   0  0  0  0  0  0  0  0  0  0  0  0
   -6.5418   34.4276  -44.9541 O   0  0  0  0  0  0  0  0  0  0  0  0
   -6.9049   35.6169  -45.5637 C   0  0  0  0  0  0  0  0  0  0  0  0
   -7.9667   36.6258  -47.3015 O   0  0  0  0  0  0  0  0  0  0  0  0
   -6.5395   38.4743  -47.6506 O   0  0  0  0  0  0  0  0  0  0  0  0
   -7.2239   37.3960  -48.2110 C   0  0  1  0  0  0  0  0  0  0  0  0
   -6.9149   36.1322  -50.0831 O   0  0  0  0  0  0  0  0  0  0  0  0
   -6.2402   36.4718  -48.8634 C   0  0  2  0  0  0  0  0  0  0  0  0
   -6.2486   34.0563  -48.8771 O   0  0  0  0  0  0  0  0  0  0  0  0
   -6.1170   35.2228  -48.0135 C   0  0  2  0  0  0  0  0  0  0  0  0
   -7.2630   35.3874  -47.0131 C   0  0  1  0  0  0  0  0  0  0  0  0
  -11.6705   31.1902  -33.8785 H   0  0  0  0  0  0  0  0  0  0  0  0
  -15.5076   34.3729  -35.8659 H   0  0  0  0  0  0  0  0  0  0  0  0
  -15.1101   34.2250  -34.1721 H   0  0  0  0  0  0  0  0  0  0  0  0
  -13.6504   32.2564  -39.9747 H   0  0  0  0  0  0  0  0  0  0  0  0
  -11.1867   29.9033  -38.0757 H   0  0  0  0  0  0  0  0  0  0  0  0
  -12.7642   30.2174  -40.5987 H   0  0  0  0  0  0  0  0  0  0  0  0
  -12.5074   27.9361  -40.5336 H   0  0  0  0  0  0  0  0  0  0  0  0
  -11.0071   29.7966  -42.0189 H   0  0  0  0  0  0  0  0  0  0  0  0
  -10.3142   27.8456  -41.0005 H   0  0  0  0  0  0  0  0  0  0  0  0
   -8.9027   30.8266  -40.4007 H   0  0  0  0  0  0  0  0  0  0  0  0
   -9.5307   33.0969  -41.1118 H   0  0  0  0  0  0  0  0  0  0  0  0
  -11.1305   32.5363  -41.6259 H   0  0  0  0  0  0  0  0  0  0  0  0
   -6.0424   36.2803  -45.5053 H   0  0  0  0  0  0  0  0  0  0  0  0
   -7.7899   36.0998  -45.1185 H   0  0  0  0  0  0  0  0  0  0  0  0
   -7.2017   39.0376  -47.2250 H   0  0  0  0  0  0  0  0  0  0  0  0
   -7.9510   37.7325  -48.9596 H   0  0  0  0  0  0  0  0  0  0  0  0
   -6.3968   35.3960  -50.4347 H   0  0  0  0  0  0  0  0  0  0  0  0
   -5.2785   36.9825  -49.0087 H   0  0  0  0  0  0  0  0  0  0  0  0
   -7.1687   34.0174  -49.2093 H   0  0  0  0  0  0  0  0  0  0  0  0
   -5.1172   35.1483  -47.5789 H   0  0  0  0  0  0  0  0  0  0  0  0
   -7.9243   34.5244  -47.1252 H   0  0  0  0  0  0  0  0  0  0  0  0
  1  2  2  0  0  0  0
  1  6  1  0  0  0  0
  2  3  1  0  0  0  0
  2 37  1  0  0  0  0
  3  4  2  0  0  0  0
  4  5  1  0  0  0  0
  4 10  1  0  0  0  0
  5  6  2  0  0  0  0
  5  8  1  0  0  0  0
  6  7  1  0  0  0  0
  7 38  1  0  0  0  0
  7 39  1  0  0  0  0
  8  9  1  0  0  0  0
  9 10  2  0  0  0  0
  9 40  1  0  0  0  0
 10 11  1  0  0  0  0
 11 12  1  0  0  0  0
 11 16  1  0  0  0  0
 11 41  1  1  0  0  0
 12 13  1  0  0  0  0
 12 14  1  0  0  0  0
 12 42  1  6  0  0  0
 13 43  1  0  0  0  0
 14 15  1  0  0  0  0
 14 17  1  0  0  0  0
 14 44  1  6  0  0  0
 15 45  1  0  0  0  0
 16 17  1  0  0  0  0
 17 18  1  0  0  0  0
 17 46  1  1  0  0  0
 18 19  1  0  0  0  0
 18 47  1  0  0  0  0
 18 48  1  0  0  0  0
 20 19  1  1  0  0  0
 20 21  2  0  0  0  0
 20 22  1  0  0  0  0
 20 23  1  0  0  0  0
 24 23  1  1  0  0  0
 24 25  2  0  0  0  0
 24 26  1  0  0  0  0
 24 27  1  0  0  0  0
 27 28  1  0  0  0  0
 28 36  1  0  0  0  0
 28 49  1  0  0  0  0
 28 50  1  0  0  0  0
 29 31  1  0  0  0  0
 29 36  1  0  0  0  0
 30 31  1  0  0  0  0
 30 51  1  0  0  0  0
 31 33  1  0  0  0  0
 31 52  1  6  0  0  0
 32 33  1  0  0  0  0
 32 53  1  0  0  0  0
 33 35  1  0  0  0  0
 33 54  1  6  0  0  0
 34 35  1  0  0  0  0
 34 55  1  0  0  0  0
 35 36  1  0  0  0  0
 35 56  1  1  0  0  0
 36 57  1  6  0  0  0
M  CHG  1  10   1
M  END
$$$$
