AQO
 OpenBabel04041916473D

 19 20  0  0  0  0  0  0  0  0999 V2000
   18.1441   17.1435   19.1193 C   0  0  0  0  0  0  0  0  0  0  0  0
   16.8539   16.7153   18.7509 C   0  0  0  0  0  0  0  0  0  0  0  0
   15.8536   16.5528   19.7338 C   0  0  0  0  0  0  0  0  0  0  0  0
   16.1303   16.8183   21.1023 C   0  0  0  0  0  0  0  0  0  0  0  0
   15.0984   16.6490   22.0757 N   0  0  0  0  0  0  0  0  0  0  0  0
   15.3385   16.8894   23.3307 C   0  0  0  0  0  0  0  0  0  0  0  0
   14.3593   16.7353   24.2934 N   0  0  0  0  0  0  0  0  0  0  0  0
   16.6005   17.3179   23.7770 N   0  3  0  0  0  0  0  0  0  0  0  0
   17.6931   17.5199   22.9155 C   0  0  0  0  0  0  0  0  0  0  0  0
   18.8082   17.9010   23.3317 O   0  0  0  0  0  0  0  0  0  0  0  0
   17.4334   17.2481   21.4604 C   0  0  0  0  0  0  0  0  0  0  0  0
   18.4351   17.4096   20.4714 C   0  0  0  0  0  0  0  0  0  0  0  0
   18.9211   17.2696   18.3565 H   0  0  0  0  0  0  0  0  0  0  0  0
   16.6250   16.5078   17.7008 H   0  0  0  0  0  0  0  0  0  0  0  0
   14.8537   16.2172   19.4263 H   0  0  0  0  0  0  0  0  0  0  0  0
   13.4125   16.4244   24.0365 H   0  0  0  0  0  0  0  0  0  0  0  0
   14.5438   16.9234   25.2728 H   0  0  0  0  0  0  0  0  0  0  0  0
   16.7491   17.4955   24.7648 H   0  0  0  0  0  0  0  0  0  0  0  0
   19.4399   17.7419   20.7516 H   0  0  0  0  0  0  0  0  0  0  0  0
  1  2  2  0  0  0  0
  1 12  1  0  0  0  0
  1 13  1  0  0  0  0
  2  3  1  0  0  0  0
  2 14  1  0  0  0  0
  3  4  2  0  0  0  0
  3 15  1  0  0  0  0
  4  5  1  0  0  0  0
  4 11  1  0  0  0  0
  5  6  2  0  0  0  0
  6  7  1  0  0  0  0
  6  8  1  0  0  0  0
  7 16  1  0  0  0  0
  7 17  1  0  0  0  0
  8  9  1  0  0  0  0
  8 18  1  0  0  0  0
  9 10  2  0  0  0  0
  9 11  1  0  0  0  0
 11 12  2  0  0  0  0
 12 19  1  0  0  0  0
M  CHG  1   8   1
M  END
$$$$
