ARE
 OpenBabel04041917383D

111115  0  0  1  0  0  0  0  0999 V2000
    1.5258   15.2854   39.9718 C   0  0  1  0  0  0  0  0  0  0  0  0
    1.7324   14.4845   41.2652 C   0  0  1  0  0  0  0  0  0  0  0  0
    2.8493   15.1311   42.0924 C   0  0  2  0  0  0  0  0  0  0  0  0
    4.1365   15.1761   41.2550 C   0  0  1  0  0  0  0  0  0  0  0  0
    3.8164   15.9723   39.9769 C   0  0  1  0  0  0  0  0  0  0  0  0
    5.0397   16.0558   39.0663 C   0  0  0  0  0  0  0  0  0  0  0  0
    1.0219   16.5990   40.2404 O   0  0  0  0  0  0  0  0  0  0  0  0
    0.5215   14.4545   42.0304 O   0  0  0  0  0  0  0  0  0  0  0  0
    3.0346   14.3519   43.2783 O   0  0  0  0  0  0  0  0  0  0  0  0
    5.1660   15.8200   42.0504 O   0  0  0  0  0  0  0  0  0  0  0  0
    2.7461   15.3671   39.2258 O   0  0  0  0  0  0  0  0  0  0  0  0
    5.5183   14.7600   38.7114 O   0  0  0  0  0  0  0  0  0  0  0  0
    6.3693   15.0443   42.1077 C   0  0  2  0  0  0  0  0  0  0  0  0
    6.7786   14.7559   43.5613 C   0  0  1  0  0  0  0  0  0  0  0  0
    7.2587   16.0248   44.2641 C   0  0  2  0  0  0  0  0  0  0  0  0
    8.4177   16.6153   43.4609 C   0  0  1  0  0  0  0  0  0  0  0  0
    7.8852   16.9392   42.0483 C   0  0  1  0  0  0  0  0  0  0  0  0
    8.9779   17.5559   41.1809 C   0  0  0  0  0  0  0  0  0  0  0  0
    5.6896   14.1698   44.2619 O   0  0  0  0  0  0  0  0  0  0  0  0
    7.6924   15.6692   45.5777 O   0  0  0  0  0  0  0  0  0  0  0  0
    8.9546   17.8432   44.1649 N   0  3  0  0  0  0  0  0  0  0  0  0
    7.4327   15.7309   41.4255 O   0  0  0  0  0  0  0  0  0  0  0  0
   13.6523   18.0197   41.1220 C   0  0  2  0  0  0  0  0  0  0  0  0
   13.2089   18.2652   39.6785 C   0  0  1  0  0  0  0  0  0  0  0  0
   13.2843   16.9961   38.8319 C   0  0  2  0  0  0  0  0  0  0  0  0
   14.7045   16.4169   38.8906 C   0  0  1  0  0  0  0  0  0  0  0  0
   14.9460   16.0867   40.3790 C   0  0  1  0  0  0  0  0  0  0  0  0
   16.3254   15.4743   40.6421 C   0  0  0  0  0  0  0  0  0  0  0  0
   11.8627   18.7888   39.6634 O   0  0  0  0  0  0  0  0  0  0  0  0
   12.8990   17.3618   37.4968 O   0  0  0  0  0  0  0  0  0  0  0  0
   14.7728   15.2435   38.0559 O   0  0  0  0  0  0  0  0  0  0  0  0
   14.8713   17.2788   41.1946 O   0  0  0  0  0  0  0  0  0  0  0  0
   17.3598   16.2616   40.0535 O   0  0  0  0  0  0  0  0  0  0  0  0
   15.9213   15.2923   37.1787 C   0  0  2  0  0  0  0  0  0  0  0  0
   15.4849   15.2710   35.7079 C   0  0  1  0  0  0  0  0  0  0  0  0
   14.8149   13.9236   35.4016 C   0  0  2  0  0  0  0  0  0  0  0  0
   15.8421   12.8163   35.6863 C   0  0  1  0  0  0  0  0  0  0  0  0
   16.2669   12.9126   37.1626 C   0  0  1  0  0  0  0  0  0  0  0  0
   17.3245   11.8421   37.4957 C   0  0  0  0  0  0  0  0  0  0  0  0
   14.6046   16.3711   35.4345 O   0  0  0  0  0  0  0  0  0  0  0  0
   14.4020   13.9001   34.0305 O   0  0  0  0  0  0  0  0  0  0  0  0
   15.2425   11.5522   35.3752 O   0  0  0  0  0  0  0  0  0  0  0  0
   16.8077   14.2072   37.4564 O   0  0  0  0  0  0  0  0  0  0  0  0
   16.8585   10.5141   37.2464 O   0  0  0  0  0  0  0  0  0  0  0  0
   10.1612   17.8111   45.1189 C   0  0  2  0  0  0  0  0  0  0  0  0
   11.0488   19.0443   44.8540 C   0  0  2  0  0  0  0  0  0  0  0  0
   10.2983   20.2415   45.0209 O   0  0  0  0  0  0  0  0  0  0  0  0
   11.6802   18.9583   43.4309 C   0  0  1  0  0  0  0  0  0  0  0  0
   12.4912   20.0981   43.1848 O   0  0  0  0  0  0  0  0  0  0  0  0
   12.5121   17.6531   43.2124 C   0  0  2  0  0  0  0  0  0  0  0  0
   12.6066   17.3378   41.8108 O   0  0  0  0  0  0  0  0  0  0  0  0
   11.8204   16.4072   43.7439 C   0  0  2  0  0  0  0  0  0  0  0  0
   11.0684   16.6069   45.0218 C   0  0  0  0  0  0  0  0  0  0  0  0
   12.7613   15.2073   43.9708 C   0  0  0  0  0  0  0  0  0  0  0  0
   13.7637   15.4986   44.9147 O   0  0  0  0  0  0  0  0  0  0  0  0
    0.7679   14.7655   39.3711 H   0  0  0  0  0  0  0  0  0  0  0  0
    2.0279   13.4506   41.0358 H   0  0  0  0  0  0  0  0  0  0  0  0
    2.5626   16.1445   42.4009 H   0  0  0  0  0  0  0  0  0  0  0  0
    4.4146   14.1410   40.9979 H   0  0  0  0  0  0  0  0  0  0  0  0
    3.5681   17.0167   40.2142 H   0  0  0  0  0  0  0  0  0  0  0  0
    5.8428   16.5849   39.5957 H   0  0  0  0  0  0  0  0  0  0  0  0
    4.7834   16.6125   38.1588 H   0  0  0  0  0  0  0  0  0  0  0  0
    0.1999   16.5075   40.7506 H   0  0  0  0  0  0  0  0  0  0  0  0
   -0.1512   14.0046   41.4926 H   0  0  0  0  0  0  0  0  0  0  0  0
    3.7695   14.7413   43.7854 H   0  0  0  0  0  0  0  0  0  0  0  0
    4.7837   14.3154   38.2320 H   0  0  0  0  0  0  0  0  0  0  0  0
    6.2090   14.0625   41.6497 H   0  0  0  0  0  0  0  0  0  0  0  0
    7.6177   14.0460   43.5558 H   0  0  0  0  0  0  0  0  0  0  0  0
    6.4436   16.7564   44.3519 H   0  0  0  0  0  0  0  0  0  0  0  0
    9.2307   15.8974   43.3995 H   0  0  0  0  0  0  0  0  0  0  0  0
    7.0625   17.6649   42.1103 H   0  0  0  0  0  0  0  0  0  0  0  0
    8.6069   17.7928   40.1808 H   0  0  0  0  0  0  0  0  0  0  0  0
    9.8248   16.8690   41.0802 H   0  0  0  0  0  0  0  0  0  0  0  0
    9.3423   18.4933   41.6022 H   0  0  0  0  0  0  0  0  0  0  0  0
    6.0111   13.9358   45.1409 H   0  0  0  0  0  0  0  0  0  0  0  0
    7.9860   16.4611   46.0614 H   0  0  0  0  0  0  0  0  0  0  0  0
    9.1675   18.5144   43.4263 H   0  0  0  0  0  0  0  0  0  0  0  0
   13.8150   18.9897   41.5995 H   0  0  0  0  0  0  0  0  0  0  0  0
   13.8716   19.0261   39.2265 H   0  0  0  0  0  0  0  0  0  0  0  0
   12.5661   16.2408   39.1796 H   0  0  0  0  0  0  0  0  0  0  0  0
   15.3990   17.1860   38.5303 H   0  0  0  0  0  0  0  0  0  0  0  0
   14.2025   15.3524   40.7150 H   0  0  0  0  0  0  0  0  0  0  0  0
   16.3932   14.4629   40.2214 H   0  0  0  0  0  0  0  0  0  0  0  0
   16.5169   15.4141   41.7223 H   0  0  0  0  0  0  0  0  0  0  0  0
   11.6527   18.9421   38.7155 H   0  0  0  0  0  0  0  0  0  0  0  0
   12.8259   16.5524   37.0116 H   0  0  0  0  0  0  0  0  0  0  0  0
   17.3037   17.1502   40.4521 H   0  0  0  0  0  0  0  0  0  0  0  0
   16.4615   16.2307   37.3322 H   0  0  0  0  0  0  0  0  0  0  0  0
   16.3396   15.4023   35.0493 H   0  0  0  0  0  0  0  0  0  0  0  0
   13.9135   13.7761   36.0166 H   0  0  0  0  0  0  0  0  0  0  0  0
   16.7070   12.9657   35.0203 H   0  0  0  0  0  0  0  0  0  0  0  0
   15.3954   12.7222   37.8077 H   0  0  0  0  0  0  0  0  0  0  0  0
   17.6326   11.9131   38.5462 H   0  0  0  0  0  0  0  0  0  0  0  0
   18.2159   11.9958   36.8719 H   0  0  0  0  0  0  0  0  0  0  0  0
   13.8735   16.1830   35.9371 H   0  0  0  0  0  0  0  0  0  0  0  0
   14.0463   13.0058   33.8535 H   0  0  0  0  0  0  0  0  0  0  0  0
   15.9228   10.8669   35.5795 H   0  0  0  0  0  0  0  0  0  0  0  0
   16.0945   10.3600   37.8312 H   0  0  0  0  0  0  0  0  0  0  0  0
    9.7095   17.8199   46.1255 H   0  0  0  0  0  0  0  0  0  0  0  0
   11.8421   19.0733   45.6101 H   0  0  0  0  0  0  0  0  0  0  0  0
    9.5837   20.3037   44.3646 H   0  0  0  0  0  0  0  0  0  0  0  0
   10.8897   19.0173   42.6872 H   0  0  0  0  0  0  0  0  0  0  0  0
   11.9630   20.9128   43.2480 H   0  0  0  0  0  0  0  0  0  0  0  0
   13.5136   17.7628   43.6491 H   0  0  0  0  0  0  0  0  0  0  0  0
   11.0835   16.1009   43.0207 H   0  0  0  0  0  0  0  0  0  0  0  0
   10.5209   15.6812   45.1796 H   0  0  0  0  0  0  0  0  0  0  0  0
   11.8301   16.7257   45.7977 H   0  0  0  0  0  0  0  0  0  0  0  0
   13.2393   14.9400   43.0199 H   0  0  0  0  0  0  0  0  0  0  0  0
   12.1951   14.3364   44.3200 H   0  0  0  0  0  0  0  0  0  0  0  0
   13.3992   15.6766   45.8004 H   0  0  0  0  0  0  0  0  0  0  0  0
    8.1545   18.2679   44.6576 H   0  0  0  0  0  0  0  0  0  0  0  0
  1  2  1  0  0  0  0
  1  7  1  0  0  0  0
  1 11  1  0  0  0  0
  1 56  1  6  0  0  0
  2  3  1  0  0  0  0
  2  8  1  0  0  0  0
  2 57  1  6  0  0  0
  3  4  1  0  0  0  0
  3  9  1  0  0  0  0
  3 58  1  1  0  0  0
  4  5  1  0  0  0  0
  4 10  1  0  0  0  0
  4 59  1  6  0  0  0
  5  6  1  0  0  0  0
  5 11  1  0  0  0  0
  5 60  1  1  0  0  0
  6 12  1  0  0  0  0
  6 61  1  0  0  0  0
  6 62  1  0  0  0  0
  7 63  1  0  0  0  0
  8 64  1  0  0  0  0
  9 65  1  0  0  0  0
 10 13  1  0  0  0  0
 12 66  1  0  0  0  0
 13 14  1  0  0  0  0
 13 22  1  0  0  0  0
 13 67  1  6  0  0  0
 14 15  1  0  0  0  0
 14 19  1  0  0  0  0
 14 68  1  6  0  0  0
 15 16  1  0  0  0  0
 15 20  1  0  0  0  0
 15 69  1  1  0  0  0
 16 17  1  0  0  0  0
 16 21  1  0  0  0  0
 16 70  1  6  0  0  0
 17 18  1  0  0  0  0
 17 22  1  0  0  0  0
 17 71  1  1  0  0  0
 18 72  1  0  0  0  0
 18 73  1  0  0  0  0
 18 74  1  0  0  0  0
 19 75  1  0  0  0  0
 20 76  1  0  0  0  0
 21 45  1  0  0  0  0
 21 77  1  0  0  0  0
 21111  1  0  0  0  0
 23 24  1  0  0  0  0
 23 32  1  0  0  0  0
 23 51  1  0  0  0  0
 23 78  1  1  0  0  0
 24 25  1  0  0  0  0
 24 29  1  0  0  0  0
 24 79  1  6  0  0  0
 25 26  1  0  0  0  0
 25 30  1  0  0  0  0
 25 80  1  1  0  0  0
 26 27  1  0  0  0  0
 26 31  1  0  0  0  0
 26 81  1  6  0  0  0
 27 28  1  0  0  0  0
 27 32  1  0  0  0  0
 27 82  1  1  0  0  0
 28 33  1  0  0  0  0
 28 83  1  0  0  0  0
 28 84  1  0  0  0  0
 29 85  1  0  0  0  0
 30 86  1  0  0  0  0
 31 34  1  0  0  0  0
 33 87  1  0  0  0  0
 34 35  1  0  0  0  0
 34 43  1  0  0  0  0
 34 88  1  1  0  0  0
 35 36  1  0  0  0  0
 35 40  1  0  0  0  0
 35 89  1  6  0  0  0
 36 37  1  0  0  0  0
 36 41  1  0  0  0  0
 36 90  1  1  0  0  0
 37 38  1  0  0  0  0
 37 42  1  0  0  0  0
 37 91  1  6  0  0  0
 38 39  1  0  0  0  0
 38 43  1  0  0  0  0
 38 92  1  1  0  0  0
 39 44  1  0  0  0  0
 39 93  1  0  0  0  0
 39 94  1  0  0  0  0
 40 95  1  0  0  0  0
 41 96  1  0  0  0  0
 42 97  1  0  0  0  0
 44 98  1  0  0  0  0
 45 46  1  0  0  0  0
 45 53  1  0  0  0  0
 45 99  1  1  0  0  0
 46 47  1  0  0  0  0
 46 48  1  0  0  0  0
 46100  1  1  0  0  0
 47101  1  0  0  0  0
 48 49  1  0  0  0  0
 48 50  1  0  0  0  0
 48102  1  6  0  0  0
 49103  1  0  0  0  0
 50 51  1  0  0  0  0
 50 52  1  0  0  0  0
 50104  1  1  0  0  0
 52 53  1  0  0  0  0
 52 54  1  0  0  0  0
 52105  1  6  0  0  0
 53106  1  0  0  0  0
 53107  1  0  0  0  0
 54 55  1  0  0  0  0
 54108  1  0  0  0  0
 54109  1  0  0  0  0
 55110  1  0  0  0  0
M  CHG  1  21   1
M  END
$$$$
