ARG
 OpenBabel04041915243D

 27 26  0  0  1  0  0  0  0  0999 V2000
   18.7503   58.1275   45.8105 N   0  3  0  0  0  0  0  0  0  0  0  0
   18.8807   57.4364   47.1562 C   0  0  2  0  0  0  0  0  0  0  0  0
   18.2691   58.3245   48.2831 C   0  0  0  0  0  0  0  0  0  0  0  0
   18.1871   57.8180   49.4208 O   0  0  0  0  0  0  0  0  0  0  0  0
   20.3550   57.1530   47.4121 C   0  0  0  0  0  0  0  0  0  0  0  0
   21.2703   58.3512   47.1515 C   0  0  0  0  0  0  0  0  0  0  0  0
   22.6176   58.0937   47.7795 C   0  0  0  0  0  0  0  0  0  0  0  0
   23.5622   59.1625   47.4636 N   0  0  0  0  0  0  0  0  0  0  0  0
   24.7950   59.1674   47.9889 C   0  0  0  0  0  0  0  0  0  0  0  0
   25.1972   58.2033   48.8304 N   0  0  0  0  0  0  0  0  0  0  0  0
   25.6552   60.1358   47.6784 N   0  0  0  0  0  0  0  0  0  0  0  0
   17.9784   59.4709   47.8190 O   0  0  0  0  0  0  0  0  0  0  0  0
   19.1185   57.6246   45.0065 H   0  0  0  0  0  0  0  0  0  0  0  0
   17.7518   58.3302   45.7189 H   0  0  0  0  0  0  0  0  0  0  0  0
   18.3189   56.4987   47.0863 H   0  0  0  0  0  0  0  0  0  0  0  0
   20.6812   56.3309   46.7616 H   0  0  0  0  0  0  0  0  0  0  0  0
   20.4907   56.8058   48.4443 H   0  0  0  0  0  0  0  0  0  0  0  0
   20.8536   59.2755   47.5678 H   0  0  0  0  0  0  0  0  0  0  0  0
   21.4012   58.5117   46.0738 H   0  0  0  0  0  0  0  0  0  0  0  0
   23.0278   57.1480   47.4047 H   0  0  0  0  0  0  0  0  0  0  0  0
   22.5008   58.0461   48.8665 H   0  0  0  0  0  0  0  0  0  0  0  0
   23.2881   59.9392   46.8676 H   0  0  0  0  0  0  0  0  0  0  0  0
   26.1134   58.2044   49.2393 H   0  0  0  0  0  0  0  0  0  0  0  0
   25.4235   60.8952   47.0500 H   0  0  0  0  0  0  0  0  0  0  0  0
   26.5808   60.1424   48.0841 H   0  0  0  0  0  0  0  0  0  0  0  0
   19.1319   59.0745   45.9512 H   0  0  0  0  0  0  0  0  0  0  0  0
   24.5795   57.4485   49.0975 H   0  0  0  0  0  0  0  0  0  0  0  0
  1  2  1  0  0  0  0
  1 13  1  0  0  0  0
  1 14  1  0  0  0  0
  1 26  1  0  0  0  0
  2  3  1  0  0  0  0
  2  5  1  0  0  0  0
  2 15  1  6  0  0  0
  3 12  2  0  0  0  0
  3  4  1  0  0  0  0
  5  6  1  0  0  0  0
  5 16  1  0  0  0  0
  5 17  1  0  0  0  0
  6  7  1  0  0  0  0
  6 18  1  0  0  0  0
  6 19  1  0  0  0  0
  7  8  1  0  0  0  0
  7 20  1  0  0  0  0
  7 21  1  0  0  0  0
  8  9  1  0  0  0  0
  8 22  1  0  0  0  0
  9 10  2  0  0  0  0
  9 11  1  0  0  0  0
 10 23  1  0  0  0  0
 10 27  1  0  0  0  0
 11 24  1  0  0  0  0
 11 25  1  0  0  0  0
M  CHG  1   1   1
M  END
$$$$
