AT1
 OpenBabel04041917223D

 38 38  0  0  1  0  0  0  0  0999 V2000
   41.7886    4.9783    5.2317 N   0  3  0  0  0  0  0  0  0  0  0  0
   39.4942    5.8881    5.5496 C   0  0  0  0  0  0  0  0  0  0  0  0
   41.1957    4.7332    2.8039 O   0  0  0  0  0  0  0  0  0  0  0  0
   40.2897    4.7222    4.9599 C   0  0  1  0  0  0  0  0  0  0  0  0
   40.0644    4.6173    3.4125 C   0  0  0  0  0  0  0  0  0  0  0  0
   38.9195    4.5247    2.9600 O   0  0  0  0  0  0  0  0  0  0  0  0
   39.4520    6.1991    9.2624 O   0  0  0  0  0  0  0  0  0  0  0  0
   38.0528    3.8493    7.1585 O   0  0  0  0  0  0  0  0  0  0  0  0
   38.7288    5.0399    9.0755 N   0  0  0  0  0  0  0  0  0  0  0  0
   40.6457    8.0000    8.1943 C   0  0  0  0  0  0  0  0  0  0  0  0
   37.3112    2.9828    8.0160 C   0  0  0  0  0  0  0  0  0  0  0  0
   38.6797    4.8749    7.7597 C   0  0  0  0  0  0  0  0  0  0  0  0
   39.4113    5.8665    7.0504 C   0  0  0  0  0  0  0  0  0  0  0  0
   39.8699    6.7078    8.0579 C   0  0  0  0  0  0  0  0  0  0  0  0
   39.7425    9.0821    8.8179 C   0  0  0  0  0  0  0  0  0  0  0  0
   41.8587    7.7845    9.1222 C   0  0  0  0  0  0  0  0  0  0  0  0
   41.1692    8.5394    6.8588 C   0  0  0  0  0  0  0  0  0  0  0  0
   36.2094    1.9012    6.8865 P   0  0  0  0  0  0  0  0  0  0  0  0
   37.2245    1.1795    6.0022 O   0  0  0  0  0  0  0  0  0  0  0  0
   35.4968    1.0029    7.8979 O   0  0  0  0  0  0  0  0  0  0  0  0
   35.3082    2.9178    6.1955 O   0  0  0  0  0  0  0  0  0  0  0  0
   42.2666    4.2188    4.7230 H   0  0  0  0  0  0  0  0  0  0  0  0
   42.0458    5.8077    4.6887 H   0  0  0  0  0  0  0  0  0  0  0  0
   38.4690    5.8542    5.1650 H   0  0  0  0  0  0  0  0  0  0  0  0
   39.9064    6.8390    5.2016 H   0  0  0  0  0  0  0  0  0  0  0  0
   40.0882    3.7635    5.4343 H   0  0  0  0  0  0  0  0  0  0  0  0
   36.6244    3.5158    8.6797 H   0  0  0  0  0  0  0  0  0  0  0  0
   37.9784    2.3027    8.5529 H   0  0  0  0  0  0  0  0  0  0  0  0
   40.2823   10.0292    8.9371 H   0  0  0  0  0  0  0  0  0  0  0  0
   39.3829    8.7846    9.8095 H   0  0  0  0  0  0  0  0  0  0  0  0
   38.8658    9.2726    8.1887 H   0  0  0  0  0  0  0  0  0  0  0  0
   42.5389    7.0277    8.7158 H   0  0  0  0  0  0  0  0  0  0  0  0
   41.5500    7.4514   10.1205 H   0  0  0  0  0  0  0  0  0  0  0  0
   42.4283    8.7128    9.2520 H   0  0  0  0  0  0  0  0  0  0  0  0
   40.3509    8.7451    6.1631 H   0  0  0  0  0  0  0  0  0  0  0  0
   41.8648    7.8378    6.3869 H   0  0  0  0  0  0  0  0  0  0  0  0
   41.7077    9.4847    7.0032 H   0  0  0  0  0  0  0  0  0  0  0  0
   42.0135    5.0021    6.2200 H   0  0  0  0  0  0  0  0  0  0  0  0
  1  4  1  0  0  0  0
  1 22  1  0  0  0  0
  1 23  1  0  0  0  0
  1 38  1  0  0  0  0
  2  4  1  0  0  0  0
  2 13  1  0  0  0  0
  2 24  1  0  0  0  0
  2 25  1  0  0  0  0
  3  5  2  0  0  0  0
  4  5  1  0  0  0  0
  4 26  1  1  0  0  0
  5  6  1  0  0  0  0
  7  9  1  0  0  0  0
  7 14  1  0  0  0  0
  8 11  1  0  0  0  0
  8 12  1  0  0  0  0
  9 12  2  0  0  0  0
 10 14  1  0  0  0  0
 10 15  1  0  0  0  0
 10 16  1  0  0  0  0
 10 17  1  0  0  0  0
 11 18  1  0  0  0  0
 11 27  1  0  0  0  0
 11 28  1  0  0  0  0
 12 13  1  0  0  0  0
 13 14  2  0  0  0  0
 15 29  1  0  0  0  0
 15 30  1  0  0  0  0
 15 31  1  0  0  0  0
 16 32  1  0  0  0  0
 16 33  1  0  0  0  0
 16 34  1  0  0  0  0
 17 35  1  0  0  0  0
 17 36  1  0  0  0  0
 17 37  1  0  0  0  0
 18 19  2  0  0  0  0
 18 20  1  0  0  0  0
 18 21  1  0  0  0  0
M  CHG  1   1   1
M  END
$$$$
