ATC
 OpenBabel04041916143D

 66 69  0  0  1  0  0  0  0  0999 V2000
   20.1342   34.6306   34.3404 C   0  0  0  0  0  0  0  0  0  0  0  0
   19.4147   35.1719   33.4984 O   0  0  0  0  0  0  0  0  0  0  0  0
   19.5757   33.5177   35.1897 C   0  0  0  0  0  0  0  0  0  0  0  0
   18.3362   32.8164   34.7261 C   0  0  0  0  0  0  0  0  0  0  0  0
   17.7943   31.8513   35.2772 O   0  0  0  0  0  0  0  0  0  0  0  0
   17.6850   33.3016   33.6408 N   0  0  0  0  0  0  0  0  0  0  0  0
   20.1870   33.2103   36.3751 C   0  0  0  0  0  0  0  0  0  0  0  0
   20.0408   32.2501   37.1960 O   0  0  0  0  0  0  0  0  0  0  0  0
   21.1927   34.2220   36.9691 C   0  0  1  0  0  0  0  0  0  0  0  0
   22.2827   33.4901   37.7686 N   0  3  0  0  0  0  0  0  0  0  0  0
   23.0132   34.3277   38.7433 C   0  0  0  0  0  0  0  0  0  0  0  0
   23.1442   32.5975   36.9318 C   0  0  0  0  0  0  0  0  0  0  0  0
   21.7647   35.3496   36.0886 C   0  0  2  0  0  0  0  0  0  0  0  0
   21.0754   36.7152   36.3438 C   0  0  0  0  0  0  0  0  0  0  0  0
   21.7939   37.8360   35.5516 C   0  0  2  0  0  0  0  0  0  0  0  0
   20.9916   39.1423   35.5681 C   0  0  0  0  0  0  0  0  0  0  0  0
   21.6926   40.2591   34.8147 C   0  0  0  0  0  0  0  0  0  0  0  0
   21.4986   41.5833   35.2399 C   0  0  0  0  0  0  0  0  0  0  0  0
   22.0616   42.6382   34.5421 C   0  0  0  0  0  0  0  0  0  0  0  0
   22.8286   42.4037   33.4028 C   0  0  0  0  0  0  0  0  0  0  0  0
   23.0971   41.1050   32.8866 C   0  0  0  0  0  0  0  0  0  0  0  0
   23.8335   41.0076   31.8310 O   0  0  0  0  0  0  0  0  0  0  0  0
   22.4871   40.0122   33.6538 C   0  0  0  0  0  0  0  0  0  0  0  0
   22.6412   38.5540   33.2152 C   0  0  0  0  0  0  0  0  0  0  0  0
   23.1633   38.2983   32.1328 O   0  0  0  0  0  0  0  0  0  0  0  0
   22.1656   37.4204   34.1348 C   0  0  0  0  0  0  0  0  0  0  0  0
   22.1418   36.1402   33.6888 C   0  0  0  0  0  0  0  0  0  0  0  0
   22.4848   35.6245   32.5798 O   0  0  0  0  0  0  0  0  0  0  0  0
   21.6402   34.9995   34.6252 C   0  0  2  0  0  0  0  0  0  0  0  0
   22.4078   33.8117   34.3635 O   0  0  0  0  0  0  0  0  0  0  0  0
   23.2824   43.5758   32.7193 N   0  0  0  0  0  0  0  0  0  0  0  0
   24.6509   43.8106   32.7428 C   0  0  0  0  0  0  0  0  0  0  0  0
   25.3646   43.6289   33.7359 O   0  0  0  0  0  0  0  0  0  0  0  0
   25.2591   44.4893   31.5065 C   0  0  0  0  0  0  0  0  0  0  0  0
   26.6617   43.9779   31.0905 N   0  3  0  0  0  0  0  0  0  0  0  0
   27.7504   44.3274   32.0686 C   0  0  0  0  0  0  0  0  0  0  0  0
   26.5837   42.4902   30.7918 C   0  0  0  0  0  0  0  0  0  0  0  0
   16.8138   32.8503   33.4033 H   0  0  0  0  0  0  0  0  0  0  0  0
   18.0233   34.1147   33.1318 H   0  0  0  0  0  0  0  0  0  0  0  0
   20.6093   34.7101   37.7667 H   0  0  0  0  0  0  0  0  0  0  0  0
   23.7199   33.7036   39.2974 H   0  0  0  0  0  0  0  0  0  0  0  0
   22.3004   34.7821   39.4374 H   0  0  0  0  0  0  0  0  0  0  0  0
   23.5671   35.1079   38.2142 H   0  0  0  0  0  0  0  0  0  0  0  0
   22.5316   31.9531   36.2974 H   0  0  0  0  0  0  0  0  0  0  0  0
   23.7097   31.9544   37.6150 H   0  0  0  0  0  0  0  0  0  0  0  0
   23.8241   33.2114   36.3434 H   0  0  0  0  0  0  0  0  0  0  0  0
   22.8311   35.4728   36.3062 H   0  0  0  0  0  0  0  0  0  0  0  0
   21.0889   36.9431   37.4179 H   0  0  0  0  0  0  0  0  0  0  0  0
   20.0181   36.6598   36.0550 H   0  0  0  0  0  0  0  0  0  0  0  0
   22.7352   38.0303   36.0902 H   0  0  0  0  0  0  0  0  0  0  0  0
   20.8328   39.4527   36.6174 H   0  0  0  0  0  0  0  0  0  0  0  0
   19.9891   38.9997   35.1422 H   0  0  0  0  0  0  0  0  0  0  0  0
   20.8921   41.8146   36.1122 H   0  0  0  0  0  0  0  0  0  0  0  0
   21.9046   43.6671   34.8470 H   0  0  0  0  0  0  0  0  0  0  0  0
   22.5016   33.9115   33.3809 H   0  0  0  0  0  0  0  0  0  0  0  0
   22.7884   43.6701   31.8375 H   0  0  0  0  0  0  0  0  0  0  0  0
   25.3852   45.5559   31.7339 H   0  0  0  0  0  0  0  0  0  0  0  0
   24.6269   44.4144   30.6158 H   0  0  0  0  0  0  0  0  0  0  0  0
   28.6905   43.8927   31.7137 H   0  0  0  0  0  0  0  0  0  0  0  0
   27.5274   43.9526   33.0665 H   0  0  0  0  0  0  0  0  0  0  0  0
   27.8540   45.4181   32.0844 H   0  0  0  0  0  0  0  0  0  0  0  0
   25.7650   42.3410   30.0828 H   0  0  0  0  0  0  0  0  0  0  0  0
   26.4493   41.9398   31.7218 H   0  0  0  0  0  0  0  0  0  0  0  0
   27.5243   42.2066   30.3095 H   0  0  0  0  0  0  0  0  0  0  0  0
   21.6376   32.8136   38.2292 H   0  0  0  0  0  0  0  0  0  0  0  0
   26.8952   44.4306   30.2043 H   0  0  0  0  0  0  0  0  0  0  0  0
  1 29  1  0  0  0  0
  1  3  1  0  0  0  0
  1  2  2  0  0  0  0
  3  7  2  0  0  0  0
  3  4  1  0  0  0  0
  4  6  1  0  0  0  0
  4  5  2  0  0  0  0
  6 38  1  0  0  0  0
  6 39  1  0  0  0  0
  7  9  1  0  0  0  0
  7  8  1  0  0  0  0
  9 13  1  0  0  0  0
  9 10  1  0  0  0  0
  9 40  1  1  0  0  0
 10 12  1  0  0  0  0
 10 11  1  0  0  0  0
 10 65  1  0  0  0  0
 11 41  1  0  0  0  0
 11 42  1  0  0  0  0
 11 43  1  0  0  0  0
 12 44  1  0  0  0  0
 12 45  1  0  0  0  0
 12 46  1  0  0  0  0
 13 29  1  0  0  0  0
 13 14  1  0  0  0  0
 13 47  1  1  0  0  0
 14 15  1  0  0  0  0
 14 48  1  0  0  0  0
 14 49  1  0  0  0  0
 15 26  1  0  0  0  0
 15 16  1  0  0  0  0
 15 50  1  1  0  0  0
 16 17  1  0  0  0  0
 16 51  1  0  0  0  0
 16 52  1  0  0  0  0
 17 23  2  0  0  0  0
 17 18  1  0  0  0  0
 18 19  2  0  0  0  0
 18 53  1  0  0  0  0
 19 20  1  0  0  0  0
 19 54  1  0  0  0  0
 20 31  1  0  0  0  0
 20 21  2  0  0  0  0
 21 23  1  0  0  0  0
 21 22  1  0  0  0  0
 23 24  1  0  0  0  0
 24 26  1  0  0  0  0
 24 25  2  0  0  0  0
 26 27  2  0  0  0  0
 27 29  1  0  0  0  0
 27 28  1  0  0  0  0
 29 30  1  6  0  0  0
 30 55  1  0  0  0  0
 31 32  1  0  0  0  0
 31 56  1  0  0  0  0
 32 34  1  0  0  0  0
 32 33  2  0  0  0  0
 34 35  1  0  0  0  0
 34 57  1  0  0  0  0
 34 58  1  0  0  0  0
 35 37  1  0  0  0  0
 35 36  1  0  0  0  0
 35 66  1  0  0  0  0
 36 59  1  0  0  0  0
 36 60  1  0  0  0  0
 36 61  1  0  0  0  0
 37 62  1  0  0  0  0
 37 63  1  0  0  0  0
 37 64  1  0  0  0  0
M  CHG  2  10   1  35   1
M  END
$$$$
