ATP
 OpenBabel04041913593D

 43 45  0  0  1  0  0  0  0  0999 V2000
   -3.9767   24.9837   15.4712 P   0  0  0  0  0  0  0  0  0  0  0  0
   -4.3472   24.6380   16.9195 O   0  0  0  0  0  0  0  0  0  0  0  0
   -3.6131   26.4449   15.3281 O   0  0  0  0  0  0  0  0  0  0  0  0
   -5.0701   24.4429   14.5056 O   0  0  0  0  0  0  0  0  0  0  0  0
   -1.5467   24.1974   14.0263 P   0  0  1  0  0  0  0  0  0  0  0  0
   -0.7005   25.4827   14.0200 O   0  0  0  0  0  0  0  0  0  0  0  0
   -0.6429   22.9528   14.1210 O   0  0  0  0  0  0  0  0  0  0  0  0
   -2.6453   24.1052   15.1821 O   0  0  0  0  0  0  0  0  0  0  0  0
   -2.9207   25.0654   11.5816 P   0  0  1  0  0  0  0  0  0  0  0  0
   -3.9265   24.4022   10.6473 O   0  0  0  0  0  0  0  0  0  0  0  0
   -3.0833   26.5199   11.9615 O   0  0  0  0  0  0  0  0  0  0  0  0
   -2.3958   24.0301   12.6763 O   0  0  0  0  0  0  0  0  0  0  0  0
   -1.5786   25.1347   10.6671 O   0  0  0  0  0  0  0  0  0  0  0  0
   -1.3151   24.0764    9.7834 C   0  0  0  0  0  0  0  0  0  0  0  0
    0.1442   24.2248    9.3674 C   0  0  1  0  0  0  0  0  0  0  0  0
    0.2697   25.2882    8.3660 O   0  0  0  0  0  0  0  0  0  0  0  0
    1.0427   24.5889   10.5466 C   0  0  1  0  0  0  0  0  0  0  0  0
    2.3540   23.9918   10.3591 O   0  0  0  0  0  0  0  0  0  0  0  0
    1.2264   26.0945   10.4463 C   0  0  1  0  0  0  0  0  0  0  0  0
    2.5541   26.4871   10.8595 O   0  0  0  0  0  0  0  0  0  0  0  0
    1.0570   26.3422    8.9431 C   0  0  2  0  0  0  0  0  0  0  0  0
    0.4644   27.6342    8.6534 N   0  3  0  0  0  0  0  0  0  0  0  0
   -0.6404   28.1473    9.2803 C   0  0  0  0  0  0  0  0  0  0  0  0
   -0.8118   29.4344    9.0434 N   0  0  0  0  0  0  0  0  0  0  0  0
    0.1765   29.7584    8.1691 C   0  0  0  0  0  0  0  0  0  0  0  0
    0.4852   30.9800    7.5341 C   0  0  0  0  0  0  0  0  0  0  0  0
   -0.2087   32.1449    7.7637 N   0  0  0  0  0  0  0  0  0  0  0  0
    1.4868   31.0131    6.6331 N   0  0  0  0  0  0  0  0  0  0  0  0
    2.1509   29.8642    6.3935 C   0  0  0  0  0  0  0  0  0  0  0  0
    1.9853   28.6351    6.9781 N   0  0  0  0  0  0  0  0  0  0  0  0
    0.9604   28.6474    7.8560 C   0  0  0  0  0  0  0  0  0  0  0  0
   -1.9793   24.1703    8.9178 H   0  0  0  0  0  0  0  0  0  0  0  0
   -1.4812   23.1064   10.2673 H   0  0  0  0  0  0  0  0  0  0  0  0
    0.4731   23.3075    8.8772 H   0  0  0  0  0  0  0  0  0  0  0  0
    0.6542   24.2519   11.5166 H   0  0  0  0  0  0  0  0  0  0  0  0
    2.7682   24.1549   11.2316 H   0  0  0  0  0  0  0  0  0  0  0  0
    0.4967   26.6356   11.0578 H   0  0  0  0  0  0  0  0  0  0  0  0
    3.1444   25.9310   10.3223 H   0  0  0  0  0  0  0  0  0  0  0  0
    2.0354   26.3086    8.4488 H   0  0  0  0  0  0  0  0  0  0  0  0
   -1.2614   27.5431    9.9466 H   0  0  0  0  0  0  0  0  0  0  0  0
    0.0751   32.9771    7.2838 H   0  0  0  0  0  0  0  0  0  0  0  0
   -0.9563   32.1224    8.4538 H   0  0  0  0  0  0  0  0  0  0  0  0
    2.9062   29.9211    5.6349 H   0  0  0  0  0  0  0  0  0  0  0  0
  1  2  2  0  0  0  0
  1  3  1  0  0  0  0
  1  4  1  0  0  0  0
  1  8  1  0  0  0  0
  5  6  2  1  0  0  0
  5  7  1  0  0  0  0
  5  8  1  0  0  0  0
  5 12  1  0  0  0  0
  9 10  2  6  0  0  0
  9 11  1  0  0  0  0
  9 12  1  0  0  0  0
  9 13  1  0  0  0  0
 13 14  1  0  0  0  0
 14 15  1  0  0  0  0
 14 32  1  0  0  0  0
 14 33  1  0  0  0  0
 15 16  1  0  0  0  0
 15 17  1  0  0  0  0
 15 34  1  6  0  0  0
 16 21  1  0  0  0  0
 17 18  1  0  0  0  0
 17 19  1  0  0  0  0
 17 35  1  1  0  0  0
 18 36  1  0  0  0  0
 19 20  1  0  0  0  0
 19 21  1  0  0  0  0
 19 37  1  1  0  0  0
 20 38  1  0  0  0  0
 21 22  1  0  0  0  0
 21 39  1  6  0  0  0
 22 23  2  0  0  0  0
 22 31  1  0  0  0  0
 23 24  1  0  0  0  0
 23 40  1  0  0  0  0
 24 25  1  0  0  0  0
 25 26  2  0  0  0  0
 25 31  1  0  0  0  0
 26 27  1  0  0  0  0
 26 28  1  0  0  0  0
 27 41  1  0  0  0  0
 27 42  1  0  0  0  0
 28 29  2  0  0  0  0
 29 30  1  0  0  0  0
 29 43  1  0  0  0  0
 30 31  2  0  0  0  0
M  CHG  1  22   1
M  END
$$$$
