ATP
 OpenBabel04041915433D

 43 45  0  0  1  0  0  0  0  0999 V2000
   48.1733   21.6151   35.8064 P   0  0  0  0  0  0  0  0  0  0  0  0
   47.9010   22.1694   37.2000 O   0  0  0  0  0  0  0  0  0  0  0  0
   47.9973   20.0852   35.7736 O   0  0  0  0  0  0  0  0  0  0  0  0
   47.3306   22.2743   34.7106 O   0  0  0  0  0  0  0  0  0  0  0  0
   50.6832   23.0875   35.0426 P   0  0  2  0  0  0  0  0  0  0  0  0
   50.3755   24.4413   35.6540 O   0  0  0  0  0  0  0  0  0  0  0  0
   50.9238   23.0707   33.5242 O   0  0  0  0  0  0  0  0  0  0  0  0
   49.7393   21.8600   35.4744 O   0  0  0  0  0  0  0  0  0  0  0  0
   52.6534   22.2216   37.0870 P   0  0  1  0  0  0  0  0  0  0  0  0
   51.8643   22.6864   38.2880 O   0  0  0  0  0  0  0  0  0  0  0  0
   53.2903   20.8367   37.0731 O   0  0  0  0  0  0  0  0  0  0  0  0
   52.1148   22.6301   35.6431 O   0  0  0  0  0  0  0  0  0  0  0  0
   53.9434   23.2457   37.1509 O   0  0  0  0  0  0  0  0  0  0  0  0
   55.2028   22.7683   36.7584 C   0  0  0  0  0  0  0  0  0  0  0  0
   56.1726   23.9465   36.6296 C   0  0  1  0  0  0  0  0  0  0  0  0
   55.9154   24.7156   35.4199 O   0  0  0  0  0  0  0  0  0  0  0  0
   56.1331   24.9397   37.8061 C   0  0  1  0  0  0  0  0  0  0  0  0
   57.4776   25.4423   38.0145 O   0  0  0  0  0  0  0  0  0  0  0  0
   55.1948   26.0274   37.2825 C   0  0  1  0  0  0  0  0  0  0  0  0
   55.3309   27.2951   37.9370 O   0  0  0  0  0  0  0  0  0  0  0  0
   55.5967   26.0717   35.8043 C   0  0  2  0  0  0  0  0  0  0  0  0
   54.5965   26.6284   34.9032 N   0  3  0  0  0  0  0  0  0  0  0  0
   53.3027   26.2068   34.7884 C   0  0  0  0  0  0  0  0  0  0  0  0
   52.6188   26.9478   33.9480 N   0  0  0  0  0  0  0  0  0  0  0  0
   53.4953   27.8630   33.4512 C   0  0  0  0  0  0  0  0  0  0  0  0
   53.3333   28.8901   32.5118 C   0  0  0  0  0  0  0  0  0  0  0  0
   52.1182   29.1638   31.8971 N   0  0  0  0  0  0  0  0  0  0  0  0
   54.4029   29.6705   32.2129 N   0  0  0  0  0  0  0  0  0  0  0  0
   55.5519   29.4193   32.8820 C   0  0  0  0  0  0  0  0  0  0  0  0
   55.8251   28.4775   33.8120 N   0  0  0  0  0  0  0  0  0  0  0  0
   54.7517   27.7053   34.0506 C   0  0  0  0  0  0  0  0  0  0  0  0
   55.1266   22.2349   35.8014 H   0  0  0  0  0  0  0  0  0  0  0  0
   55.5865   22.0777   37.5192 H   0  0  0  0  0  0  0  0  0  0  0  0
   57.1835   23.5421   36.5072 H   0  0  0  0  0  0  0  0  0  0  0  0
   55.8070   24.5173   38.7640 H   0  0  0  0  0  0  0  0  0  0  0  0
   57.9871   24.6843   38.3308 H   0  0  0  0  0  0  0  0  0  0  0  0
   54.1606   25.6965   37.4148 H   0  0  0  0  0  0  0  0  0  0  0  0
   54.5804   27.8230   37.6040 H   0  0  0  0  0  0  0  0  0  0  0  0
   56.5099   26.6648   35.6808 H   0  0  0  0  0  0  0  0  0  0  0  0
   52.8909   25.3567   35.3360 H   0  0  0  0  0  0  0  0  0  0  0  0
   52.1150   29.7611   31.0904 H   0  0  0  0  0  0  0  0  0  0  0  0
   51.4113   28.4388   32.0189 H   0  0  0  0  0  0  0  0  0  0  0  0
   56.3699   30.0879   32.6375 H   0  0  0  0  0  0  0  0  0  0  0  0
  1  2  2  0  0  0  0
  1  3  1  0  0  0  0
  1  4  1  0  0  0  0
  1  8  1  0  0  0  0
  5  6  2  1  0  0  0
  5  7  1  0  0  0  0
  5  8  1  0  0  0  0
  5 12  1  0  0  0  0
  9 10  2  1  0  0  0
  9 11  1  0  0  0  0
  9 12  1  0  0  0  0
  9 13  1  0  0  0  0
 13 14  1  0  0  0  0
 14 15  1  0  0  0  0
 14 32  1  0  0  0  0
 14 33  1  0  0  0  0
 15 16  1  0  0  0  0
 15 17  1  0  0  0  0
 15 34  1  6  0  0  0
 16 21  1  0  0  0  0
 17 18  1  0  0  0  0
 17 19  1  0  0  0  0
 17 35  1  1  0  0  0
 18 36  1  0  0  0  0
 19 20  1  0  0  0  0
 19 21  1  0  0  0  0
 19 37  1  1  0  0  0
 20 38  1  0  0  0  0
 21 22  1  0  0  0  0
 21 39  1  6  0  0  0
 22 23  2  0  0  0  0
 22 31  1  0  0  0  0
 23 24  1  0  0  0  0
 23 40  1  0  0  0  0
 24 25  1  0  0  0  0
 25 26  2  0  0  0  0
 25 31  1  0  0  0  0
 26 27  1  0  0  0  0
 26 28  1  0  0  0  0
 27 41  1  0  0  0  0
 27 42  1  0  0  0  0
 28 29  2  0  0  0  0
 29 30  1  0  0  0  0
 29 43  1  0  0  0  0
 30 31  2  0  0  0  0
M  CHG  1  22   1
M  END
$$$$
