BAB
 OpenBabel04041917433D

 43 46  0  0  0  0  0  0  0  0999 V2000
   43.7440   -2.8497   26.4088 C   0  0  0  0  0  0  0  0  0  0  0  0
   44.3429   -1.5924   26.6299 C   0  0  0  0  0  0  0  0  0  0  0  0
   44.1417   -0.8691   27.8134 C   0  0  0  0  0  0  0  0  0  0  0  0
   43.3456   -1.4307   28.8135 C   0  0  0  0  0  0  0  0  0  0  0  0
   42.7752   -2.6781   28.6202 C   0  0  0  0  0  0  0  0  0  0  0  0
   42.9361   -3.4068   27.4334 C   0  0  0  0  0  0  0  0  0  0  0  0
   43.9638   -3.5706   25.1247 C   0  0  0  0  0  0  0  0  0  0  0  0
   43.7805   -4.8723   25.0475 N   0  0  0  0  0  0  0  0  0  0  0  0
   44.3506   -2.9203   24.0455 N   0  0  0  0  0  0  0  0  0  0  0  0
   43.0120   -0.9270   30.0267 N   0  0  0  0  0  0  0  0  0  0  0  0
   42.0972   -2.9212   29.7956 N   0  3  0  0  0  0  0  0  0  0  0  0
   42.2829   -1.8443   30.6351 C   0  0  0  0  0  0  0  0  0  0  0  0
   45.1725    0.3396   36.5139 C   0  0  0  0  0  0  0  0  0  0  0  0
   45.5205    1.2611   35.5032 C   0  0  0  0  0  0  0  0  0  0  0  0
   44.9697    1.1926   34.2208 C   0  0  0  0  0  0  0  0  0  0  0  0
   44.0277    0.1998   33.9514 C   0  0  0  0  0  0  0  0  0  0  0  0
   43.6696   -0.7067   34.9406 C   0  0  0  0  0  0  0  0  0  0  0  0
   44.2179   -0.6703   36.2311 C   0  0  0  0  0  0  0  0  0  0  0  0
   45.8158    0.4419   37.8470 C   0  0  0  0  0  0  0  0  0  0  0  0
   45.1749    0.0573   38.9300 N   0  0  0  0  0  0  0  0  0  0  0  0
   43.3500   -0.0379   32.7999 N   0  0  0  0  0  0  0  0  0  0  0  0
   42.7459   -1.5228   34.3189 N   0  3  0  0  0  0  0  0  0  0  0  0
   42.6033   -1.1011   33.0119 C   0  0  0  0  0  0  0  0  0  0  0  0
   41.6841   -1.7484   32.0129 C   0  0  0  0  0  0  0  0  0  0  0  0
   47.0356    0.9298   37.9529 N   0  0  0  0  0  0  0  0  0  0  0  0
   44.9984   -1.1302   25.8940 H   0  0  0  0  0  0  0  0  0  0  0  0
   44.5951    0.1053   27.9720 H   0  0  0  0  0  0  0  0  0  0  0  0
   42.4304   -4.3606   27.3230 H   0  0  0  0  0  0  0  0  0  0  0  0
   43.9096   -5.3846   24.1852 H   0  0  0  0  0  0  0  0  0  0  0  0
   44.4703   -1.9142   24.0483 H   0  0  0  0  0  0  0  0  0  0  0  0
   44.5317   -3.3853   23.1666 H   0  0  0  0  0  0  0  0  0  0  0  0
   41.5594   -3.7483   30.0111 H   0  0  0  0  0  0  0  0  0  0  0  0
   46.2235    2.0695   35.6889 H   0  0  0  0  0  0  0  0  0  0  0  0
   45.2479    1.8942   33.4404 H   0  0  0  0  0  0  0  0  0  0  0  0
   43.9210   -1.4112   36.9662 H   0  0  0  0  0  0  0  0  0  0  0  0
   45.5902    0.1142   39.8505 H   0  0  0  0  0  0  0  0  0  0  0  0
   42.2554   -2.2958   34.7440 H   0  0  0  0  0  0  0  0  0  0  0  0
   41.3927   -2.7456   32.3629 H   0  0  0  0  0  0  0  0  0  0  0  0
   40.7698   -1.1469   31.9471 H   0  0  0  0  0  0  0  0  0  0  0  0
   47.5631    1.1966   37.1286 H   0  0  0  0  0  0  0  0  0  0  0  0
   47.5003    1.0523   38.8423 H   0  0  0  0  0  0  0  0  0  0  0  0
   43.5156   -5.4169   25.8581 H   0  0  0  0  0  0  0  0  0  0  0  0
   44.2229   -0.2848   38.8785 H   0  0  0  0  0  0  0  0  0  0  0  0
  1  2  2  0  0  0  0
  1  6  1  0  0  0  0
  1  7  1  0  0  0  0
  2  3  1  0  0  0  0
  2 26  1  0  0  0  0
  3  4  2  0  0  0  0
  3 27  1  0  0  0  0
  4  5  1  0  0  0  0
  4 10  1  0  0  0  0
  5  6  2  0  0  0  0
  5 11  1  0  0  0  0
  6 28  1  0  0  0  0
  7  8  2  0  0  0  0
  7  9  1  0  0  0  0
  8 29  1  0  0  0  0
  8 42  1  0  0  0  0
  9 30  1  0  0  0  0
  9 31  1  0  0  0  0
 10 12  1  0  0  0  0
 11 12  2  0  0  0  0
 11 32  1  0  0  0  0
 12 24  1  0  0  0  0
 13 14  2  0  0  0  0
 13 18  1  0  0  0  0
 13 19  1  0  0  0  0
 14 15  1  0  0  0  0
 14 33  1  0  0  0  0
 15 16  2  0  0  0  0
 15 34  1  0  0  0  0
 16 17  1  0  0  0  0
 16 21  1  0  0  0  0
 17 18  2  0  0  0  0
 17 22  1  0  0  0  0
 18 35  1  0  0  0  0
 19 20  2  0  0  0  0
 19 25  1  0  0  0  0
 20 36  1  0  0  0  0
 20 43  1  0  0  0  0
 21 23  1  0  0  0  0
 22 23  2  0  0  0  0
 22 37  1  0  0  0  0
 23 24  1  0  0  0  0
 24 38  1  0  0  0  0
 24 39  1  0  0  0  0
 25 40  1  0  0  0  0
 25 41  1  0  0  0  0
M  CHG  2  11   1  22   1
M  END
$$$$
