BAI
 OpenBabel04041914083D

 37 40  0  0  0  0  0  0  0  0999 V2000
   11.7778  -11.8497   23.0677 C   0  0  0  0  0  0  0  0  0  0  0  0
   12.2216  -10.6667   22.4406 C   0  0  0  0  0  0  0  0  0  0  0  0
   13.2410  -10.6782   21.4740 C   0  0  0  0  0  0  0  0  0  0  0  0
   13.8059  -11.9069   21.1140 C   0  0  0  0  0  0  0  0  0  0  0  0
   13.3561  -13.0663   21.7194 C   0  0  0  0  0  0  0  0  0  0  0  0
   12.3627  -13.0827   22.7017 C   0  0  0  0  0  0  0  0  0  0  0  0
   10.7178  -11.8133   24.1046 C   0  0  0  0  0  0  0  0  0  0  0  0
   14.9575  -13.4906   20.2328 C   0  0  0  0  0  0  0  0  0  0  0  0
   15.9490  -14.3055   19.4559 C   0  0  0  0  0  0  0  0  0  0  0  0
    9.9884  -12.8841   24.3446 N   0  0  0  0  0  0  0  0  0  0  0  0
   10.5054  -10.7190   24.8060 N   0  0  0  0  0  0  0  0  0  0  0  0
   14.7920  -12.1833   20.2156 N   0  0  0  0  0  0  0  0  0  0  0  0
   14.0998  -14.0639   21.1405 N   0  3  0  0  0  0  0  0  0  0  0  0
   17.0368  -11.5313   14.2746 C   0  0  0  0  0  0  0  0  0  0  0  0
   16.5158  -12.6940   13.6996 C   0  0  0  0  0  0  0  0  0  0  0  0
   16.0769  -13.7685   14.4856 C   0  0  0  0  0  0  0  0  0  0  0  0
   16.1965  -13.6177   15.8690 C   0  0  0  0  0  0  0  0  0  0  0  0
   16.7355  -12.4825   16.4601 C   0  0  0  0  0  0  0  0  0  0  0  0
   17.1534  -11.4116   15.6625 C   0  0  0  0  0  0  0  0  0  0  0  0
   16.1984  -13.7607   18.0888 C   0  0  0  0  0  0  0  0  0  0  0  0
   15.8619  -14.4236   16.9304 N   0  3  0  0  0  0  0  0  0  0  0  0
   16.7728  -12.6090   17.8191 N   0  0  0  0  0  0  0  0  0  0  0  0
   11.7859   -9.6979   22.6702 H   0  0  0  0  0  0  0  0  0  0  0  0
   13.5921   -9.7651   21.0018 H   0  0  0  0  0  0  0  0  0  0  0  0
   12.0868  -14.0241   23.1614 H   0  0  0  0  0  0  0  0  0  0  0  0
   15.6080  -15.3461   19.3927 H   0  0  0  0  0  0  0  0  0  0  0  0
   16.8963  -14.3133   20.0075 H   0  0  0  0  0  0  0  0  0  0  0  0
    9.2831  -12.9103   25.0672 H   0  0  0  0  0  0  0  0  0  0  0  0
   10.0995  -13.7251   23.7904 H   0  0  0  0  0  0  0  0  0  0  0  0
    9.7877  -10.6602   25.5153 H   0  0  0  0  0  0  0  0  0  0  0  0
   14.0396  -15.0509   21.3470 H   0  0  0  0  0  0  0  0  0  0  0  0
   17.3613  -10.7087   13.6424 H   0  0  0  0  0  0  0  0  0  0  0  0
   16.4488  -12.7627   12.6150 H   0  0  0  0  0  0  0  0  0  0  0  0
   15.6698  -14.6653   14.0325 H   0  0  0  0  0  0  0  0  0  0  0  0
   17.5521  -10.5184   16.1260 H   0  0  0  0  0  0  0  0  0  0  0  0
   15.4304  -15.3318   16.8620 H   0  0  0  0  0  0  0  0  0  0  0  0
   11.0726   -9.8914   24.6654 H   0  0  0  0  0  0  0  0  0  0  0  0
  1  7  1  0  0  0  0
  1  6  2  0  0  0  0
  1  2  1  0  0  0  0
  2  3  2  0  0  0  0
  2 23  1  0  0  0  0
  3  4  1  0  0  0  0
  3 24  1  0  0  0  0
  4 12  1  0  0  0  0
  4  5  2  0  0  0  0
  5 13  1  0  0  0  0
  5  6  1  0  0  0  0
  6 25  1  0  0  0  0
  7 11  2  0  0  0  0
  7 10  1  0  0  0  0
  8 13  2  0  0  0  0
  8 12  1  0  0  0  0
  8  9  1  0  0  0  0
  9 20  1  0  0  0  0
  9 26  1  0  0  0  0
  9 27  1  0  0  0  0
 10 28  1  0  0  0  0
 10 29  1  0  0  0  0
 11 30  1  0  0  0  0
 11 37  1  0  0  0  0
 13 31  1  0  0  0  0
 14 15  1  0  0  0  0
 14 19  2  0  0  0  0
 14 32  1  0  0  0  0
 15 16  2  0  0  0  0
 15 33  1  0  0  0  0
 16 17  1  0  0  0  0
 16 34  1  0  0  0  0
 17 21  1  0  0  0  0
 17 18  2  0  0  0  0
 18 19  1  0  0  0  0
 18 22  1  0  0  0  0
 19 35  1  0  0  0  0
 20 22  1  0  0  0  0
 20 21  2  0  0  0  0
 21 36  1  0  0  0  0
M  CHG  2  13   1  21   1
M  END
$$$$
