BAI
 OpenBabel04041914083D

 37 40  0  0  0  0  0  0  0  0999 V2000
   45.3305   19.4757   52.8622 C   0  0  0  0  0  0  0  0  0  0  0  0
   44.7137   19.0753   51.6563 C   0  0  0  0  0  0  0  0  0  0  0  0
   44.2710   20.0113   50.7110 C   0  0  0  0  0  0  0  0  0  0  0  0
   44.4740   21.3695   50.9752 C   0  0  0  0  0  0  0  0  0  0  0  0
   45.0953   21.7502   52.1490 C   0  0  0  0  0  0  0  0  0  0  0  0
   45.5186   20.8516   53.1159 C   0  0  0  0  0  0  0  0  0  0  0  0
   45.7791   18.4998   53.8736 C   0  0  0  0  0  0  0  0  0  0  0  0
   44.5702   23.5131   50.9147 C   0  0  0  0  0  0  0  0  0  0  0  0
   44.4373   24.9575   50.5444 C   0  0  0  0  0  0  0  0  0  0  0  0
   46.6575   18.8430   54.7958 N   0  0  0  0  0  0  0  0  0  0  0  0
   45.2940   17.2741   53.8822 N   0  0  0  0  0  0  0  0  0  0  0  0
   44.1309   22.4629   50.2466 N   0  0  0  0  0  0  0  0  0  0  0  0
   45.1525   23.1172   52.0890 N   0  3  0  0  0  0  0  0  0  0  0  0
   45.0613   25.3895   44.6171 C   0  0  0  0  0  0  0  0  0  0  0  0
   45.7837   26.5505   44.9168 C   0  0  0  0  0  0  0  0  0  0  0  0
   45.9758   26.9755   46.2382 C   0  0  0  0  0  0  0  0  0  0  0  0
   45.4085   26.1828   47.2346 C   0  0  0  0  0  0  0  0  0  0  0  0
   44.6783   25.0351   46.9563 C   0  0  0  0  0  0  0  0  0  0  0  0
   44.4975   24.6176   45.6348 C   0  0  0  0  0  0  0  0  0  0  0  0
   44.6768   25.2013   49.0937 C   0  0  0  0  0  0  0  0  0  0  0  0
   45.3900   26.2728   48.6058 N   0  3  0  0  0  0  0  0  0  0  0  0
   44.2173   24.4654   48.1044 N   0  0  0  0  0  0  0  0  0  0  0  0
   44.5587   18.0310   51.4099 H   0  0  0  0  0  0  0  0  0  0  0  0
   43.7860   19.7067   49.7861 H   0  0  0  0  0  0  0  0  0  0  0  0
   45.9528   21.2383   54.0315 H   0  0  0  0  0  0  0  0  0  0  0  0
   45.1239   25.5616   51.1515 H   0  0  0  0  0  0  0  0  0  0  0  0
   43.4192   25.2771   50.7925 H   0  0  0  0  0  0  0  0  0  0  0  0
   46.9656   18.2205   55.5213 H   0  0  0  0  0  0  0  0  0  0  0  0
   47.0751   19.7698   54.7961 H   0  0  0  0  0  0  0  0  0  0  0  0
   45.5788   16.5857   54.5601 H   0  0  0  0  0  0  0  0  0  0  0  0
   45.5468   23.7257   52.7911 H   0  0  0  0  0  0  0  0  0  0  0  0
   44.9288   25.0822   43.5834 H   0  0  0  0  0  0  0  0  0  0  0  0
   46.2064   27.1338   44.1020 H   0  0  0  0  0  0  0  0  0  0  0  0
   46.5355   27.8759   46.4634 H   0  0  0  0  0  0  0  0  0  0  0  0
   43.9322   23.7180   45.4277 H   0  0  0  0  0  0  0  0  0  0  0  0
   45.8234   27.0027   49.1490 H   0  0  0  0  0  0  0  0  0  0  0  0
   44.5980   16.9842   53.2052 H   0  0  0  0  0  0  0  0  0  0  0  0
  1  7  1  0  0  0  0
  1  6  2  0  0  0  0
  1  2  1  0  0  0  0
  2  3  2  0  0  0  0
  2 23  1  0  0  0  0
  3  4  1  0  0  0  0
  3 24  1  0  0  0  0
  4 12  1  0  0  0  0
  4  5  2  0  0  0  0
  5 13  1  0  0  0  0
  5  6  1  0  0  0  0
  6 25  1  0  0  0  0
  7 11  2  0  0  0  0
  7 10  1  0  0  0  0
  8 13  2  0  0  0  0
  8 12  1  0  0  0  0
  8  9  1  0  0  0  0
  9 20  1  0  0  0  0
  9 26  1  0  0  0  0
  9 27  1  0  0  0  0
 10 28  1  0  0  0  0
 10 29  1  0  0  0  0
 11 30  1  0  0  0  0
 11 37  1  0  0  0  0
 13 31  1  0  0  0  0
 14 15  1  0  0  0  0
 14 19  2  0  0  0  0
 14 32  1  0  0  0  0
 15 16  2  0  0  0  0
 15 33  1  0  0  0  0
 16 17  1  0  0  0  0
 16 34  1  0  0  0  0
 17 21  1  0  0  0  0
 17 18  2  0  0  0  0
 18 19  1  0  0  0  0
 18 22  1  0  0  0  0
 19 35  1  0  0  0  0
 20 22  1  0  0  0  0
 20 21  2  0  0  0  0
 21 36  1  0  0  0  0
M  CHG  2  13   1  21   1
M  END
$$$$
