BAM
 OpenBabel04041914093D

 18 18  0  0  0  0  0  0  0  0999 V2000
   45.5295   19.3187   52.8953 C   0  0  0  0  0  0  0  0  0  0  0  0
   45.6120   20.6989   53.1569 C   0  0  0  0  0  0  0  0  0  0  0  0
   45.2646   21.6415   52.1819 C   0  0  0  0  0  0  0  0  0  0  0  0
   44.8145   21.2203   50.9363 C   0  0  0  0  0  0  0  0  0  0  0  0
   44.7143   19.8630   50.6578 C   0  0  0  0  0  0  0  0  0  0  0  0
   45.0772   18.9186   51.6243 C   0  0  0  0  0  0  0  0  0  0  0  0
   45.9169   18.3210   53.9214 C   0  0  0  0  0  0  0  0  0  0  0  0
   46.7901   18.6343   54.8557 N   0  0  0  0  0  0  0  0  0  0  0  0
   45.3847   17.1160   53.9100 N   0  0  0  0  0  0  0  0  0  0  0  0
   45.9278   21.0804   54.1257 H   0  0  0  0  0  0  0  0  0  0  0  0
   45.3420   22.7062   52.3967 H   0  0  0  0  0  0  0  0  0  0  0  0
   44.5394   21.9539   50.1801 H   0  0  0  0  0  0  0  0  0  0  0  0
   44.3609   19.5380   49.6808 H   0  0  0  0  0  0  0  0  0  0  0  0
   45.0125   17.8708   51.3450 H   0  0  0  0  0  0  0  0  0  0  0  0
   47.0628   17.9871   55.5817 H   0  0  0  0  0  0  0  0  0  0  0  0
   47.2416   19.5401   54.8599 H   0  0  0  0  0  0  0  0  0  0  0  0
   45.6329   16.4075   54.5856 H   0  0  0  0  0  0  0  0  0  0  0  0
   44.6854   16.8626   53.2202 H   0  0  0  0  0  0  0  0  0  0  0  0
  1  7  1  0  0  0  0
  1  6  2  0  0  0  0
  1  2  1  0  0  0  0
  2  3  2  0  0  0  0
  2 10  1  0  0  0  0
  3  4  1  0  0  0  0
  3 11  1  0  0  0  0
  4  5  2  0  0  0  0
  4 12  1  0  0  0  0
  5  6  1  0  0  0  0
  5 13  1  0  0  0  0
  6 14  1  0  0  0  0
  7  9  2  0  0  0  0
  7  8  1  0  0  0  0
  8 15  1  0  0  0  0
  8 16  1  0  0  0  0
  9 17  1  0  0  0  0
  9 18  1  0  0  0  0
M  END
$$$$
