BCG
 OpenBabel04041916413D

 40 42  0  0  1  0  0  0  0  0999 V2000
   22.4783   -1.2533   26.2699 C   0  0  1  0  0  0  0  0  0  0  0  0
   23.8213   -1.8420   25.8266 C   0  0  2  0  0  0  0  0  0  0  0  0
   23.7878   -2.2967   24.3617 C   0  0  2  0  0  0  0  0  0  0  0  0
   22.4873   -3.0353   24.0053 C   0  0  0  0  0  0  0  0  0  0  0  0
   21.2488   -2.3263   24.5699 C   0  0  2  0  0  0  0  0  0  0  0  0
   21.2099   -0.8358   24.2181 C   0  0  0  0  0  0  0  0  0  0  0  0
   22.0119   -0.1337   25.3289 C   0  0  0  0  0  0  0  0  0  0  0  0
   26.1206   -2.5283   23.9614 C   0  0  0  0  0  0  0  0  0  0  0  0
   27.1598   -3.5231   23.5821 C   0  0  0  0  0  0  0  0  0  0  0  0
   26.8312   -4.8274   23.1879 C   0  0  0  0  0  0  0  0  0  0  0  0
   27.8275   -5.7106   22.7714 C   0  0  0  0  0  0  0  0  0  0  0  0
   29.1612   -5.2982   22.7558 C   0  0  0  0  0  0  0  0  0  0  0  0
   29.4972   -4.0092   23.1649 C   0  0  0  0  0  0  0  0  0  0  0  0
   28.5007   -3.1227   23.5792 C   0  0  0  0  0  0  0  0  0  0  0  0
   24.1401   -3.0117   26.7620 C   0  0  0  0  0  0  0  0  0  0  0  0
   20.1497   -2.0731   26.8542 C   0  0  0  0  0  0  0  0  0  0  0  0
   21.3880   -2.2900   26.0605 N   0  3  2  0  0  0  0  0  0  0  0  0
   24.9019   -3.1243   23.9929 O   0  0  0  0  0  0  0  0  0  0  0  0
   26.3427   -1.3413   24.1336 O   0  0  0  0  0  0  0  0  0  0  0  0
   25.2690   -2.9937   27.3000 O   0  0  0  0  0  0  0  0  0  0  0  0
   23.1618   -3.8124   26.9076 O   0  0  0  0  0  0  0  0  0  0  0  0
   22.4849   -0.9590   27.3263 H   0  0  0  0  0  0  0  0  0  0  0  0
   24.6001   -1.0818   25.9624 H   0  0  0  0  0  0  0  0  0  0  0  0
   23.8307   -1.4067   23.7224 H   0  0  0  0  0  0  0  0  0  0  0  0
   22.5293   -4.0710   24.3652 H   0  0  0  0  0  0  0  0  0  0  0  0
   22.4086   -3.1169   22.9141 H   0  0  0  0  0  0  0  0  0  0  0  0
   20.3302   -2.8596   24.3030 H   0  0  0  0  0  0  0  0  0  0  0  0
   20.1764   -0.4691   24.2245 H   0  0  0  0  0  0  0  0  0  0  0  0
   21.6135   -0.6311   23.2211 H   0  0  0  0  0  0  0  0  0  0  0  0
   22.8461    0.4499   24.9244 H   0  0  0  0  0  0  0  0  0  0  0  0
   21.3612    0.5664   25.8631 H   0  0  0  0  0  0  0  0  0  0  0  0
   25.7976   -5.1711   23.1959 H   0  0  0  0  0  0  0  0  0  0  0  0
   27.5659   -6.7194   22.4637 H   0  0  0  0  0  0  0  0  0  0  0  0
   29.9366   -5.9866   22.4313 H   0  0  0  0  0  0  0  0  0  0  0  0
   30.5423   -3.6924   23.1649 H   0  0  0  0  0  0  0  0  0  0  0  0
   28.7735   -2.1174   23.8995 H   0  0  0  0  0  0  0  0  0  0  0  0
   20.4076   -2.1371   27.9142 H   0  0  0  0  0  0  0  0  0  0  0  0
   19.4300   -2.8526   26.5933 H   0  0  0  0  0  0  0  0  0  0  0  0
   19.7366   -1.0865   26.6249 H   0  0  0  0  0  0  0  0  0  0  0  0
   21.8172   -3.1942   26.4165 H   0  0  0  0  0  0  0  0  0  0  0  0
  1  2  1  0  0  0  0
  1  7  1  0  0  0  0
  1 17  1  0  0  0  0
  1 22  1  1  0  0  0
  2  3  1  0  0  0  0
  2 15  1  0  0  0  0
  2 23  1  1  0  0  0
  3  4  1  0  0  0  0
  3 18  1  0  0  0  0
  3 24  1  6  0  0  0
  4  5  1  0  0  0  0
  4 25  1  0  0  0  0
  4 26  1  0  0  0  0
  5  6  1  0  0  0  0
  5 17  1  0  0  0  0
  5 27  1  6  0  0  0
  6  7  1  0  0  0  0
  6 28  1  0  0  0  0
  6 29  1  0  0  0  0
  7 30  1  0  0  0  0
  7 31  1  0  0  0  0
  8  9  1  0  0  0  0
  8 18  1  0  0  0  0
  8 19  2  0  0  0  0
  9 10  2  0  0  0  0
  9 14  1  0  0  0  0
 10 11  1  0  0  0  0
 10 32  1  0  0  0  0
 11 12  2  0  0  0  0
 11 33  1  0  0  0  0
 12 13  1  0  0  0  0
 12 34  1  0  0  0  0
 13 14  2  0  0  0  0
 13 35  1  0  0  0  0
 14 36  1  0  0  0  0
 15 20  2  0  0  0  0
 15 21  1  0  0  0  0
 16 17  1  0  0  0  0
 16 37  1  0  0  0  0
 16 38  1  0  0  0  0
 16 39  1  0  0  0  0
 17 40  1  1  0  0  0
M  CHG  1  17   1
M  END
$$$$
