BE3
 OpenBabel04041917263D

 88 93  0  0  1  0  0  0  0  0999 V2000
    9.5856   24.0533    2.1870 C   0  0  0  0  0  0  0  0  0  0  0  0
    8.9775   25.2657    1.7481 C   0  0  0  0  0  0  0  0  0  0  0  0
    7.5836   25.4680    1.8778 C   0  0  0  0  0  0  0  0  0  0  0  0
    6.7436   24.4542    2.4392 C   0  0  0  0  0  0  0  0  0  0  0  0
    7.3213   23.2288    2.8681 C   0  0  0  0  0  0  0  0  0  0  0  0
    8.7329   23.0225    2.7350 C   0  0  0  0  0  0  0  0  0  0  0  0
   16.4150   22.0100    8.7660 C   0  0  0  0  0  0  0  0  0  0  0  0
   15.7256   20.9010    9.3830 C   0  0  0  0  0  0  0  0  0  0  0  0
   16.4510   19.7331    9.7587 C   0  0  0  0  0  0  0  0  0  0  0  0
   17.8627   19.6769    9.5425 C   0  0  0  0  0  0  0  0  0  0  0  0
   18.5375   20.7883    8.9500 C   0  0  0  0  0  0  0  0  0  0  0  0
   17.8227   21.9474    8.5687 C   0  0  0  0  0  0  0  0  0  0  0  0
   15.6912   23.2859    8.2925 C   0  0  0  0  0  0  0  0  0  0  0  0
   14.6052   23.0597    7.3603 O   0  0  0  0  0  0  0  0  0  0  0  0
   14.9570   22.5955    6.0397 C   0  0  2  0  0  0  0  0  0  0  0  0
   13.8572   22.8513    4.9637 C   0  0  1  0  0  0  0  0  0  0  0  0
   13.4571   24.3050    4.9723 C   0  0  2  0  0  0  0  0  0  0  0  0
   12.0811   24.4955    4.2287 C   0  0  2  0  0  0  0  0  0  0  0  0
   10.9242   24.4237    5.2634 C   0  0  0  0  0  0  0  0  0  0  0  0
   10.6842   23.4642    5.9216 O   0  0  0  0  0  0  0  0  0  0  0  0
   10.1395   25.5661    5.3121 N   0  0  0  0  0  0  0  0  0  0  0  0
   11.8771   23.5135    3.1815 O   0  0  0  0  0  0  0  0  0  0  0  0
   11.1280   23.9383    2.0209 C   0  0  0  0  0  0  0  0  0  0  0  0
   14.5435   25.0697    4.3669 O   0  0  0  0  0  0  0  0  0  0  0  0
   14.3304   22.5370    3.6164 O   0  0  0  0  0  0  0  0  0  0  0  0
   15.0459   21.0712    5.9152 C   0  0  0  0  0  0  0  0  0  0  0  0
   14.1153   20.3604    6.1350 O   0  0  0  0  0  0  0  0  0  0  0  0
   16.2859   20.6129    5.4908 N   0  0  0  0  0  0  0  0  0  0  0  0
   16.5191   19.1974    5.2765 C   0  0  1  0  0  0  0  0  0  0  0  0
   16.4913   18.7919    3.8020 C   0  0  0  0  0  0  0  0  0  0  0  0
   17.4477   17.7716    3.5609 C   0  0  0  0  0  0  0  0  0  0  0  0
   15.6746   19.2866    2.7502 C   0  0  0  0  0  0  0  0  0  0  0  0
   15.8430   18.7477    1.4567 C   0  0  0  0  0  0  0  0  0  0  0  0
   16.8021   17.7180    1.2161 C   0  0  0  0  0  0  0  0  0  0  0  0
   17.9538   18.7310    5.6794 C   0  0  2  0  0  0  0  0  0  0  0  0
   18.8832   19.7858    5.3426 O   0  0  0  0  0  0  0  0  0  0  0  0
   17.6108   17.2157    2.2671 C   0  0  0  0  0  0  0  0  0  0  0  0
   18.1855   17.4357    4.8465 C   0  0  0  0  0  0  0  0  0  0  0  0
    8.9903   25.6801    6.2064 C   0  0  1  0  0  0  0  0  0  0  0  0
    9.2762   26.4425    7.5166 C   0  0  0  0  0  0  0  0  0  0  0  0
    8.1535   27.2401    7.8712 C   0  0  0  0  0  0  0  0  0  0  0  0
   10.4284   26.4307    8.3310 C   0  0  0  0  0  0  0  0  0  0  0  0
   10.4530   27.2384    9.5137 C   0  0  0  0  0  0  0  0  0  0  0  0
    9.3263   28.0375    9.8668 C   0  0  0  0  0  0  0  0  0  0  0  0
    7.8611   26.5702    5.5918 C   0  0  2  0  0  0  0  0  0  0  0  0
    8.4925   27.6566    4.8689 O   0  0  0  0  0  0  0  0  0  0  0  0
    8.1702   28.0256    9.0457 C   0  0  0  0  0  0  0  0  0  0  0  0
    7.0597   27.0669    6.8236 C   0  0  0  0  0  0  0  0  0  0  0  0
   15.8080   18.6836   10.3160 F   0  0  0  0  0  0  0  0  0  0  0  0
    6.5367   22.2677    3.3994 F   0  0  0  0  0  0  0  0  0  0  0  0
    9.5979   26.0609    1.3164 H   0  0  0  0  0  0  0  0  0  0  0  0
    7.1500   26.4330    1.5384 H   0  0  0  0  0  0  0  0  0  0  0  0
    5.6669   24.6425    2.5282 H   0  0  0  0  0  0  0  0  0  0  0  0
    9.1665   22.0725    3.0743 H   0  0  0  0  0  0  0  0  0  0  0  0
   14.6394   20.9719    9.5345 H   0  0  0  0  0  0  0  0  0  0  0  0
   18.4511   18.7940    9.8226 H   0  0  0  0  0  0  0  0  0  0  0  0
   19.6355   20.7792    8.7644 H   0  0  0  0  0  0  0  0  0  0  0  0
   18.3479   22.7958    8.1079 H   0  0  0  0  0  0  0  0  0  0  0  0
   16.4203   23.9769    7.8251 H   0  0  0  0  0  0  0  0  0  0  0  0
   15.3101   23.8249    9.1873 H   0  0  0  0  0  0  0  0  0  0  0  0
   15.8795   23.0726    5.7052 H   0  0  0  0  0  0  0  0  0  0  0  0
   12.9657   22.2505    5.1927 H   0  0  0  0  0  0  0  0  0  0  0  0
   13.3998   24.6486    6.0154 H   0  0  0  0  0  0  0  0  0  0  0  0
   12.1197   25.4943    3.7996 H   0  0  0  0  0  0  0  0  0  0  0  0
   10.3417   26.3779    4.7450 H   0  0  0  0  0  0  0  0  0  0  0  0
   11.5525   24.9077    1.6989 H   0  0  0  0  0  0  0  0  0  0  0  0
   11.3621   23.2339    1.1947 H   0  0  0  0  0  0  0  0  0  0  0  0
   14.6708   24.7531    3.4563 H   0  0  0  0  0  0  0  0  0  0  0  0
   13.5942   22.7076    2.9929 H   0  0  0  0  0  0  0  0  0  0  0  0
   17.0252   21.2509    5.2502 H   0  0  0  0  0  0  0  0  0  0  0  0
   15.7939   18.6213    5.8704 H   0  0  0  0  0  0  0  0  0  0  0  0
   14.9510   20.0848    2.9576 H   0  0  0  0  0  0  0  0  0  0  0  0
   15.2233   19.1153    0.6186 H   0  0  0  0  0  0  0  0  0  0  0  0
   16.9143   17.3063    0.2039 H   0  0  0  0  0  0  0  0  0  0  0  0
   18.0531   18.5259    6.7541 H   0  0  0  0  0  0  0  0  0  0  0  0
   19.7828   19.5065    5.5710 H   0  0  0  0  0  0  0  0  0  0  0  0
   18.3489   16.4283    2.0816 H   0  0  0  0  0  0  0  0  0  0  0  0
   19.2506   17.2280    4.6790 H   0  0  0  0  0  0  0  0  0  0  0  0
   17.7217   16.5681    5.3452 H   0  0  0  0  0  0  0  0  0  0  0  0
    8.5777   24.6789    6.4049 H   0  0  0  0  0  0  0  0  0  0  0  0
   11.2969   25.8202    8.0621 H   0  0  0  0  0  0  0  0  0  0  0  0
   11.3492   27.2468   10.1692 H   0  0  0  0  0  0  0  0  0  0  0  0
    9.3558   28.6539   10.7795 H   0  0  0  0  0  0  0  0  0  0  0  0
    7.2136   26.0291    4.8850 H   0  0  0  0  0  0  0  0  0  0  0  0
    7.8112   28.2363    4.4930 H   0  0  0  0  0  0  0  0  0  0  0  0
    7.3001   28.6600    9.3222 H   0  0  0  0  0  0  0  0  0  0  0  0
    6.5259   27.9986    6.6041 H   0  0  0  0  0  0  0  0  0  0  0  0
    6.3386   26.2914    7.1286 H   0  0  0  0  0  0  0  0  0  0  0  0
  1  2  2  0  0  0  0
  1  6  1  0  0  0  0
  1 23  1  0  0  0  0
  2  3  1  0  0  0  0
  2 51  1  0  0  0  0
  3  4  2  0  0  0  0
  3 52  1  0  0  0  0
  4  5  1  0  0  0  0
  4 53  1  0  0  0  0
  5  6  2  0  0  0  0
  5 50  1  0  0  0  0
  6 54  1  0  0  0  0
  7  8  2  0  0  0  0
  7 12  1  0  0  0  0
  7 13  1  0  0  0  0
  8  9  1  0  0  0  0
  8 55  1  0  0  0  0
  9 10  2  0  0  0  0
  9 49  1  0  0  0  0
 10 11  1  0  0  0  0
 10 56  1  0  0  0  0
 11 12  2  0  0  0  0
 11 57  1  0  0  0  0
 12 58  1  0  0  0  0
 13 14  1  0  0  0  0
 13 59  1  0  0  0  0
 13 60  1  0  0  0  0
 14 15  1  0  0  0  0
 15 16  1  0  0  0  0
 15 26  1  0  0  0  0
 15 61  1  6  0  0  0
 16 17  1  0  0  0  0
 16 25  1  0  0  0  0
 16 62  1  1  0  0  0
 17 18  1  0  0  0  0
 17 24  1  0  0  0  0
 17 63  1  1  0  0  0
 18 19  1  0  0  0  0
 18 22  1  0  0  0  0
 18 64  1  6  0  0  0
 19 20  2  0  0  0  0
 19 21  1  0  0  0  0
 21 39  1  0  0  0  0
 21 65  1  0  0  0  0
 22 23  1  0  0  0  0
 23 66  1  0  0  0  0
 23 67  1  0  0  0  0
 24 68  1  0  0  0  0
 25 69  1  0  0  0  0
 26 27  2  0  0  0  0
 26 28  1  0  0  0  0
 28 29  1  0  0  0  0
 28 70  1  0  0  0  0
 29 30  1  0  0  0  0
 29 35  1  0  0  0  0
 29 71  1  1  0  0  0
 30 31  2  0  0  0  0
 30 32  1  0  0  0  0
 31 37  1  0  0  0  0
 31 38  1  0  0  0  0
 32 33  2  0  0  0  0
 32 72  1  0  0  0  0
 33 34  1  0  0  0  0
 33 73  1  0  0  0  0
 34 37  2  0  0  0  0
 34 74  1  0  0  0  0
 35 36  1  0  0  0  0
 35 38  1  0  0  0  0
 35 75  1  1  0  0  0
 36 76  1  0  0  0  0
 37 77  1  0  0  0  0
 38 78  1  0  0  0  0
 38 79  1  0  0  0  0
 39 40  1  0  0  0  0
 39 45  1  0  0  0  0
 39 80  1  1  0  0  0
 40 41  2  0  0  0  0
 40 42  1  0  0  0  0
 41 47  1  0  0  0  0
 41 48  1  0  0  0  0
 42 43  2  0  0  0  0
 42 81  1  0  0  0  0
 43 44  1  0  0  0  0
 43 82  1  0  0  0  0
 44 47  2  0  0  0  0
 44 83  1  0  0  0  0
 45 46  1  0  0  0  0
 45 48  1  0  0  0  0
 45 84  1  6  0  0  0
 46 85  1  0  0  0  0
 47 86  1  0  0  0  0
 48 87  1  0  0  0  0
 48 88  1  0  0  0  0
M  END
$$$$
