BE5
 OpenBabel04041917263D

 88 93  0  0  1  0  0  0  0  0999 V2000
   16.5698   21.9098    8.7684 C   0  0  0  0  0  0  0  0  0  0  0  0
   17.9913   21.7559    8.5419 C   0  0  0  0  0  0  0  0  0  0  0  0
   18.6577   20.5546    8.8763 C   0  0  0  0  0  0  0  0  0  0  0  0
   17.9278   19.4582    9.4564 C   0  0  0  0  0  0  0  0  0  0  0  0
   16.5095   19.5925    9.6940 C   0  0  0  0  0  0  0  0  0  0  0  0
   15.8292   20.8124    9.3566 C   0  0  0  0  0  0  0  0  0  0  0  0
    9.7687   23.8441    2.2054 C   0  0  0  0  0  0  0  0  0  0  0  0
    8.7480   22.9333    2.6690 C   0  0  0  0  0  0  0  0  0  0  0  0
    7.3832   23.3622    2.6995 C   0  0  0  0  0  0  0  0  0  0  0  0
    7.0285   24.6971    2.2551 C   0  0  0  0  0  0  0  0  0  0  0  0
    8.0540   25.5925    1.7861 C   0  0  0  0  0  0  0  0  0  0  0  0
    9.4041   25.1668    1.7597 C   0  0  0  0  0  0  0  0  0  0  0  0
   11.2660   23.4973    2.1847 C   0  0  0  0  0  0  0  0  0  0  0  0
   11.7776   23.0839    3.4687 O   0  0  0  0  0  0  0  0  0  0  0  0
   11.9173   24.0755    4.5044 C   0  0  2  0  0  0  0  0  0  0  0  0
   12.9722   23.6974    5.5771 C   0  0  1  0  0  0  0  0  0  0  0  0
   14.3192   23.4400    4.9418 C   0  0  2  0  0  0  0  0  0  0  0  0
   15.2605   22.7388    5.9916 C   0  0  2  0  0  0  0  0  0  0  0  0
   15.1413   21.2050    5.8000 C   0  0  0  0  0  0  0  0  0  0  0  0
   14.1490   20.5877    5.9952 O   0  0  0  0  0  0  0  0  0  0  0  0
   16.3349   20.6018    5.4307 N   0  0  0  0  0  0  0  0  0  0  0  0
   14.8990   23.0892    7.3540 O   0  0  0  0  0  0  0  0  0  0  0  0
   15.9469   23.2427    8.3293 C   0  0  0  0  0  0  0  0  0  0  0  0
   14.8650   24.7223    4.5093 O   0  0  0  0  0  0  0  0  0  0  0  0
   13.1302   24.8026    6.5205 O   0  0  0  0  0  0  0  0  0  0  0  0
   10.6631   24.1710    5.3763 C   0  0  0  0  0  0  0  0  0  0  0  0
   10.2592   23.2549    6.0132 O   0  0  0  0  0  0  0  0  0  0  0  0
   10.0251   25.4054    5.3358 N   0  0  0  0  0  0  0  0  0  0  0  0
    8.8510   25.6042    6.1606 C   0  0  1  0  0  0  0  0  0  0  0  0
    9.1546   26.3275    7.4764 C   0  0  0  0  0  0  0  0  0  0  0  0
    8.0522   27.1444    7.8388 C   0  0  0  0  0  0  0  0  0  0  0  0
   10.3165   26.2748    8.2877 C   0  0  0  0  0  0  0  0  0  0  0  0
   10.3652   27.0589    9.4672 C   0  0  0  0  0  0  0  0  0  0  0  0
    9.2497   27.8752    9.8333 C   0  0  0  0  0  0  0  0  0  0  0  0
    7.7801   26.5584    5.5501 C   0  0  2  0  0  0  0  0  0  0  0  0
    8.4779   27.6388    4.8892 O   0  0  0  0  0  0  0  0  0  0  0  0
    8.0805   27.9220    9.0242 C   0  0  0  0  0  0  0  0  0  0  0  0
    6.9559   27.0263    6.7882 C   0  0  0  0  0  0  0  0  0  0  0  0
   16.4222   19.1622    5.2202 C   0  0  1  0  0  0  0  0  0  0  0  0
   16.3574   18.7489    3.7390 C   0  0  0  0  0  0  0  0  0  0  0  0
   17.2855   17.7029    3.4807 C   0  0  0  0  0  0  0  0  0  0  0  0
   15.5392   19.2586    2.7041 C   0  0  0  0  0  0  0  0  0  0  0  0
   15.6684   18.7041    1.3871 C   0  0  0  0  0  0  0  0  0  0  0  0
   16.6001   17.6538    1.1365 C   0  0  0  0  0  0  0  0  0  0  0  0
   17.8294   18.6215    5.6287 C   0  0  2  0  0  0  0  0  0  0  0  0
   18.8050   19.6571    5.3446 O   0  0  0  0  0  0  0  0  0  0  0  0
   17.3978   17.1434    2.1869 C   0  0  0  0  0  0  0  0  0  0  0  0
   18.0300   17.3530    4.7606 C   0  0  0  0  0  0  0  0  0  0  0  0
    6.3993   22.5382    3.1394 F   0  0  0  0  0  0  0  0  0  0  0  0
   15.8501   18.5411   10.2401 F   0  0  0  0  0  0  0  0  0  0  0  0
   14.5024   20.9518    9.5747 F   0  0  0  0  0  0  0  0  0  0  0  0
    9.1018   21.6905    3.0746 F   0  0  0  0  0  0  0  0  0  0  0  0
   18.5661   22.5851    8.0933 H   0  0  0  0  0  0  0  0  0  0  0  0
   19.7456   20.4761    8.6821 H   0  0  0  0  0  0  0  0  0  0  0  0
   18.4806   18.5374    9.7032 H   0  0  0  0  0  0  0  0  0  0  0  0
    5.9872   25.0631    2.2637 H   0  0  0  0  0  0  0  0  0  0  0  0
    7.8253   26.6229    1.4400 H   0  0  0  0  0  0  0  0  0  0  0  0
   10.1874   25.8635    1.4025 H   0  0  0  0  0  0  0  0  0  0  0  0
   11.8709   24.3518    1.8151 H   0  0  0  0  0  0  0  0  0  0  0  0
   11.4307   22.6895    1.4350 H   0  0  0  0  0  0  0  0  0  0  0  0
   12.1960   25.0562    4.1049 H   0  0  0  0  0  0  0  0  0  0  0  0
   12.6772   22.7746    6.1013 H   0  0  0  0  0  0  0  0  0  0  0  0
   14.1794   22.8357    4.0293 H   0  0  0  0  0  0  0  0  0  0  0  0
   16.2742   23.0735    5.7756 H   0  0  0  0  0  0  0  0  0  0  0  0
   17.1772   21.1292    5.2670 H   0  0  0  0  0  0  0  0  0  0  0  0
   16.6994   23.9408    7.9110 H   0  0  0  0  0  0  0  0  0  0  0  0
   15.5295   23.7755    9.2129 H   0  0  0  0  0  0  0  0  0  0  0  0
   14.9262   25.2938    5.2940 H   0  0  0  0  0  0  0  0  0  0  0  0
   13.7852   24.5368    7.1938 H   0  0  0  0  0  0  0  0  0  0  0  0
   10.4145   26.1922    4.8423 H   0  0  0  0  0  0  0  0  0  0  0  0
    8.3714   24.6269    6.3284 H   0  0  0  0  0  0  0  0  0  0  0  0
   11.1696   25.6454    7.9847 H   0  0  0  0  0  0  0  0  0  0  0  0
   11.2608   27.0378   10.1172 H   0  0  0  0  0  0  0  0  0  0  0  0
    9.2943   28.4743   10.7562 H   0  0  0  0  0  0  0  0  0  0  0  0
    7.1275   26.0731    4.8115 H   0  0  0  0  0  0  0  0  0  0  0  0
    7.8399   28.2643    4.5206 H   0  0  0  0  0  0  0  0  0  0  0  0
    7.2282   28.5525    9.3054 H   0  0  0  0  0  0  0  0  0  0  0  0
    6.4303   27.9747    6.6124 H   0  0  0  0  0  0  0  0  0  0  0  0
    6.2192   26.2551    7.0772 H   0  0  0  0  0  0  0  0  0  0  0  0
   15.6559   18.6502    5.8215 H   0  0  0  0  0  0  0  0  0  0  0  0
   14.8254   20.0646    2.8983 H   0  0  0  0  0  0  0  0  0  0  0  0
   15.0433   19.0839    0.5540 H   0  0  0  0  0  0  0  0  0  0  0  0
   16.6873   17.2352    0.1224 H   0  0  0  0  0  0  0  0  0  0  0  0
   17.9015   18.3801    6.7001 H   0  0  0  0  0  0  0  0  0  0  0  0
   19.6908   19.3404    5.5751 H   0  0  0  0  0  0  0  0  0  0  0  0
   18.1326   16.3326    1.9783 H   0  0  0  0  0  0  0  0  0  0  0  0
   19.0931   17.1529    4.5877 H   0  0  0  0  0  0  0  0  0  0  0  0
   17.5668   16.4876    5.2603 H   0  0  0  0  0  0  0  0  0  0  0  0
  1  2  2  0  0  0  0
  1  6  1  0  0  0  0
  1 23  1  0  0  0  0
  2  3  1  0  0  0  0
  2 53  1  0  0  0  0
  3  4  2  0  0  0  0
  3 54  1  0  0  0  0
  4  5  1  0  0  0  0
  4 55  1  0  0  0  0
  5  6  2  0  0  0  0
  5 50  1  0  0  0  0
  6 51  1  0  0  0  0
  7  8  2  0  0  0  0
  7 12  1  0  0  0  0
  7 13  1  0  0  0  0
  8  9  1  0  0  0  0
  8 52  1  0  0  0  0
  9 10  2  0  0  0  0
  9 49  1  0  0  0  0
 10 11  1  0  0  0  0
 10 56  1  0  0  0  0
 11 12  2  0  0  0  0
 11 57  1  0  0  0  0
 12 58  1  0  0  0  0
 13 14  1  0  0  0  0
 13 59  1  0  0  0  0
 13 60  1  0  0  0  0
 14 15  1  0  0  0  0
 15 16  1  0  0  0  0
 15 26  1  0  0  0  0
 15 61  1  6  0  0  0
 16 17  1  0  0  0  0
 16 25  1  0  0  0  0
 16 62  1  1  0  0  0
 17 18  1  0  0  0  0
 17 24  1  0  0  0  0
 17 63  1  6  0  0  0
 18 19  1  0  0  0  0
 18 22  1  0  0  0  0
 18 64  1  6  0  0  0
 19 20  2  0  0  0  0
 19 21  1  0  0  0  0
 21 39  1  0  0  0  0
 21 65  1  0  0  0  0
 22 23  1  0  0  0  0
 23 66  1  0  0  0  0
 23 67  1  0  0  0  0
 24 68  1  0  0  0  0
 25 69  1  0  0  0  0
 26 27  2  0  0  0  0
 26 28  1  0  0  0  0
 28 29  1  0  0  0  0
 28 70  1  0  0  0  0
 29 30  1  0  0  0  0
 29 35  1  0  0  0  0
 29 71  1  1  0  0  0
 30 31  2  0  0  0  0
 30 32  1  0  0  0  0
 31 37  1  0  0  0  0
 31 38  1  0  0  0  0
 32 33  2  0  0  0  0
 32 72  1  0  0  0  0
 33 34  1  0  0  0  0
 33 73  1  0  0  0  0
 34 37  2  0  0  0  0
 34 74  1  0  0  0  0
 35 36  1  0  0  0  0
 35 38  1  0  0  0  0
 35 75  1  6  0  0  0
 36 76  1  0  0  0  0
 37 77  1  0  0  0  0
 38 78  1  0  0  0  0
 38 79  1  0  0  0  0
 39 40  1  0  0  0  0
 39 45  1  0  0  0  0
 39 80  1  1  0  0  0
 40 41  2  0  0  0  0
 40 42  1  0  0  0  0
 41 47  1  0  0  0  0
 41 48  1  0  0  0  0
 42 43  2  0  0  0  0
 42 81  1  0  0  0  0
 43 44  1  0  0  0  0
 43 82  1  0  0  0  0
 44 47  2  0  0  0  0
 44 83  1  0  0  0  0
 45 46  1  0  0  0  0
 45 48  1  0  0  0  0
 45 84  1  1  0  0  0
 46 85  1  0  0  0  0
 47 86  1  0  0  0  0
 48 87  1  0  0  0  0
 48 88  1  0  0  0  0
M  END
$$$$
