BE6
 OpenBabel04041917273D

 88 93  0  0  1  0  0  0  0  0999 V2000
   16.8115   22.3920    8.7919 C   0  0  0  0  0  0  0  0  0  0  0  0
   18.1561   22.4692    8.3927 C   0  0  0  0  0  0  0  0  0  0  0  0
   19.0272   21.4233    8.6559 C   0  0  0  0  0  0  0  0  0  0  0  0
   18.6025   20.2823    9.3240 C   0  0  0  0  0  0  0  0  0  0  0  0
   17.2706   20.1906    9.7300 C   0  0  0  0  0  0  0  0  0  0  0  0
   16.3891   21.2406    9.4673 C   0  0  0  0  0  0  0  0  0  0  0  0
   10.0855   24.1882    2.2875 C   0  0  0  0  0  0  0  0  0  0  0  0
    8.9876   23.3859    2.6267 C   0  0  0  0  0  0  0  0  0  0  0  0
    7.6869   23.8929    2.6137 C   0  0  0  0  0  0  0  0  0  0  0  0
    7.4629   25.2162    2.2360 C   0  0  0  0  0  0  0  0  0  0  0  0
    8.5444   26.0117    1.8742 C   0  0  0  0  0  0  0  0  0  0  0  0
    9.8426   25.5107    1.8899 C   0  0  0  0  0  0  0  0  0  0  0  0
   11.4964   23.6586    2.3178 C   0  0  0  0  0  0  0  0  0  0  0  0
   12.0059   23.3126    3.6067 O   0  0  0  0  0  0  0  0  0  0  0  0
   12.0774   24.3818    4.5552 C   0  0  2  0  0  0  0  0  0  0  0  0
   13.1555   24.0864    5.6225 C   0  0  1  0  0  0  0  0  0  0  0  0
   14.5439   23.7032    5.0733 C   0  0  2  0  0  0  0  0  0  0  0  0
   15.4431   23.0452    6.1657 C   0  0  2  0  0  0  0  0  0  0  0  0
   15.3842   21.5272    5.9444 C   0  0  0  0  0  0  0  0  0  0  0  0
   14.3564   20.8851    6.1491 O   0  0  0  0  0  0  0  0  0  0  0  0
   16.5606   20.9397    5.5472 N   0  0  0  0  0  0  0  0  0  0  0  0
   14.9381   23.3575    7.4765 O   0  0  0  0  0  0  0  0  0  0  0  0
   15.8947   23.5464    8.5113 C   0  0  0  0  0  0  0  0  0  0  0  0
   15.2038   24.9098    4.6189 O   0  0  0  0  0  0  0  0  0  0  0  0
   13.3523   25.2676    6.4452 O   0  0  0  0  0  0  0  0  0  0  0  0
   10.7745   24.4411    5.3757 C   0  0  0  0  0  0  0  0  0  0  0  0
   10.3058   23.4538    5.9438 O   0  0  0  0  0  0  0  0  0  0  0  0
   10.1775   25.6763    5.4562 N   0  0  0  0  0  0  0  0  0  0  0  0
    9.0501   25.8930    6.3298 C   0  0  1  0  0  0  0  0  0  0  0  0
    9.3837   26.6856    7.5707 C   0  0  0  0  0  0  0  0  0  0  0  0
    8.3258   27.5532    7.8849 C   0  0  0  0  0  0  0  0  0  0  0  0
   10.4926   26.5946    8.3967 C   0  0  0  0  0  0  0  0  0  0  0  0
   10.5431   27.4066    9.5311 C   0  0  0  0  0  0  0  0  0  0  0  0
    9.4947   28.2928    9.8275 C   0  0  0  0  0  0  0  0  0  0  0  0
    7.9627   26.8001    5.6963 C   0  0  2  0  0  0  0  0  0  0  0  0
    8.5647   27.8494    4.9109 O   0  0  0  0  0  0  0  0  0  0  0  0
    8.3716   28.3692    9.0013 C   0  0  0  0  0  0  0  0  0  0  0  0
    7.2039   27.3848    6.9009 C   0  0  0  0  0  0  0  0  0  0  0  0
   16.6637   19.5127    5.3550 C   0  0  1  0  0  0  0  0  0  0  0  0
   16.6163   19.0774    3.9104 C   0  0  0  0  0  0  0  0  0  0  0  0
   17.5214   18.0254    3.6998 C   0  0  0  0  0  0  0  0  0  0  0  0
   15.8276   19.5468    2.8803 C   0  0  0  0  0  0  0  0  0  0  0  0
   15.9774   18.9707    1.6112 C   0  0  0  0  0  0  0  0  0  0  0  0
   16.8904   17.9239    1.3988 C   0  0  0  0  0  0  0  0  0  0  0  0
   18.0631   18.9719    5.7640 C   0  0  2  0  0  0  0  0  0  0  0  0
   19.0839   19.9320    5.4177 O   0  0  0  0  0  0  0  0  0  0  0  0
   17.6611   17.4296    2.4529 C   0  0  0  0  0  0  0  0  0  0  0  0
   18.2308   17.6646    4.9706 C   0  0  0  0  0  0  0  0  0  0  0  0
    8.3344   27.2830    1.5088 F   0  0  0  0  0  0  0  0  0  0  0  0
   20.3036   21.5185    8.2558 F   0  0  0  0  0  0  0  0  0  0  0  0
   15.1254   21.1411    9.9016 F   0  0  0  0  0  0  0  0  0  0  0  0
    9.1697   22.1029    2.9621 F   0  0  0  0  0  0  0  0  0  0  0  0
   18.5280   23.3506    7.8802 H   0  0  0  0  0  0  0  0  0  0  0  0
   19.3034   19.4804    9.5185 H   0  0  0  0  0  0  0  0  0  0  0  0
   16.9189   19.3108   10.2611 H   0  0  0  0  0  0  0  0  0  0  0  0
    6.8581   23.2523    2.8977 H   0  0  0  0  0  0  0  0  0  0  0  0
    6.4610   25.6339    2.2236 H   0  0  0  0  0  0  0  0  0  0  0  0
   10.6582   26.1649    1.5939 H   0  0  0  0  0  0  0  0  0  0  0  0
   12.1858   24.3732    1.8504 H   0  0  0  0  0  0  0  0  0  0  0  0
   11.5418   22.7564    1.6956 H   0  0  0  0  0  0  0  0  0  0  0  0
   12.2802   25.3408    4.0627 H   0  0  0  0  0  0  0  0  0  0  0  0
   12.7932   23.2752    6.2667 H   0  0  0  0  0  0  0  0  0  0  0  0
   14.4644   23.0496    4.1989 H   0  0  0  0  0  0  0  0  0  0  0  0
   16.4700   23.4149    6.0586 H   0  0  0  0  0  0  0  0  0  0  0  0
   17.4004   21.4731    5.3463 H   0  0  0  0  0  0  0  0  0  0  0  0
   16.4708   24.4473    8.2750 H   0  0  0  0  0  0  0  0  0  0  0  0
   15.3352   23.7878    9.4251 H   0  0  0  0  0  0  0  0  0  0  0  0
   15.0025   25.5863    5.2985 H   0  0  0  0  0  0  0  0  0  0  0  0
   13.8255   24.9292    7.2342 H   0  0  0  0  0  0  0  0  0  0  0  0
   10.5952   26.4984    5.0391 H   0  0  0  0  0  0  0  0  0  0  0  0
    8.5988   24.9460    6.6406 H   0  0  0  0  0  0  0  0  0  0  0  0
   11.2987   25.9032    8.1722 H   0  0  0  0  0  0  0  0  0  0  0  0
   11.3981   27.3438   10.1995 H   0  0  0  0  0  0  0  0  0  0  0  0
    9.5531   28.9138   10.7179 H   0  0  0  0  0  0  0  0  0  0  0  0
    7.3045   26.2391    5.0268 H   0  0  0  0  0  0  0  0  0  0  0  0
    7.8482   28.4209    4.5856 H   0  0  0  0  0  0  0  0  0  0  0  0
    7.5584   29.0471    9.2383 H   0  0  0  0  0  0  0  0  0  0  0  0
    6.6928   28.3230    6.6766 H   0  0  0  0  0  0  0  0  0  0  0  0
    6.4991   26.6464    7.3028 H   0  0  0  0  0  0  0  0  0  0  0  0
   15.8834   18.9806    5.9088 H   0  0  0  0  0  0  0  0  0  0  0  0
   15.1057   20.3385    3.0402 H   0  0  0  0  0  0  0  0  0  0  0  0
   15.3705   19.3326    0.7808 H   0  0  0  0  0  0  0  0  0  0  0  0
   16.9901   17.4945    0.4056 H   0  0  0  0  0  0  0  0  0  0  0  0
   18.1385   18.8081    6.8419 H   0  0  0  0  0  0  0  0  0  0  0  0
   19.9474   19.5268    5.6080 H   0  0  0  0  0  0  0  0  0  0  0  0
   18.3580   16.6143    2.2903 H   0  0  0  0  0  0  0  0  0  0  0  0
   19.2779   17.3982    4.8024 H   0  0  0  0  0  0  0  0  0  0  0  0
   17.6954   16.8414    5.4594 H   0  0  0  0  0  0  0  0  0  0  0  0
  1  2  2  0  0  0  0
  1  6  1  0  0  0  0
  1 23  1  0  0  0  0
  2  3  1  0  0  0  0
  2 53  1  0  0  0  0
  3  4  2  0  0  0  0
  3 50  1  0  0  0  0
  4  5  1  0  0  0  0
  4 54  1  0  0  0  0
  5  6  2  0  0  0  0
  5 55  1  0  0  0  0
  6 51  1  0  0  0  0
  7  8  2  0  0  0  0
  7 12  1  0  0  0  0
  7 13  1  0  0  0  0
  8  9  1  0  0  0  0
  8 52  1  0  0  0  0
  9 10  2  0  0  0  0
  9 56  1  0  0  0  0
 10 11  1  0  0  0  0
 10 57  1  0  0  0  0
 11 12  2  0  0  0  0
 11 49  1  0  0  0  0
 12 58  1  0  0  0  0
 13 14  1  0  0  0  0
 13 59  1  0  0  0  0
 13 60  1  0  0  0  0
 14 15  1  0  0  0  0
 15 16  1  0  0  0  0
 15 26  1  0  0  0  0
 15 61  1  6  0  0  0
 16 17  1  0  0  0  0
 16 25  1  0  0  0  0
 16 62  1  1  0  0  0
 17 18  1  0  0  0  0
 17 24  1  0  0  0  0
 17 63  1  6  0  0  0
 18 19  1  0  0  0  0
 18 22  1  0  0  0  0
 18 64  1  6  0  0  0
 19 20  2  0  0  0  0
 19 21  1  0  0  0  0
 21 39  1  0  0  0  0
 21 65  1  0  0  0  0
 22 23  1  0  0  0  0
 23 66  1  0  0  0  0
 23 67  1  0  0  0  0
 24 68  1  0  0  0  0
 25 69  1  0  0  0  0
 26 27  2  0  0  0  0
 26 28  1  0  0  0  0
 28 29  1  0  0  0  0
 28 70  1  0  0  0  0
 29 30  1  0  0  0  0
 29 35  1  0  0  0  0
 29 71  1  1  0  0  0
 30 31  2  0  0  0  0
 30 32  1  0  0  0  0
 31 37  1  0  0  0  0
 31 38  1  0  0  0  0
 32 33  2  0  0  0  0
 32 72  1  0  0  0  0
 33 34  1  0  0  0  0
 33 73  1  0  0  0  0
 34 37  2  0  0  0  0
 34 74  1  0  0  0  0
 35 36  1  0  0  0  0
 35 38  1  0  0  0  0
 35 75  1  6  0  0  0
 36 76  1  0  0  0  0
 37 77  1  0  0  0  0
 38 78  1  0  0  0  0
 38 79  1  0  0  0  0
 39 40  1  0  0  0  0
 39 45  1  0  0  0  0
 39 80  1  1  0  0  0
 40 41  2  0  0  0  0
 40 42  1  0  0  0  0
 41 47  1  0  0  0  0
 41 48  1  0  0  0  0
 42 43  2  0  0  0  0
 42 81  1  0  0  0  0
 43 44  1  0  0  0  0
 43 82  1  0  0  0  0
 44 47  2  0  0  0  0
 44 83  1  0  0  0  0
 45 46  1  0  0  0  0
 45 48  1  0  0  0  0
 45 84  1  1  0  0  0
 46 85  1  0  0  0  0
 47 86  1  0  0  0  0
 48 87  1  0  0  0  0
 48 88  1  0  0  0  0
M  END
$$$$
