BEC
 OpenBabel04041914253D

 89 92  0  0  1  0  0  0  0  0999 V2000
    9.7541   24.2225    2.2824 C   0  0  0  0  0  0  0  0  0  0  0  0
    9.1661   25.4309    1.8605 C   0  0  0  0  0  0  0  0  0  0  0  0
    7.7786   25.6232    1.9925 C   0  0  0  0  0  0  0  0  0  0  0  0
    6.9774   24.6201    2.5380 C   0  0  0  0  0  0  0  0  0  0  0  0
    7.5510   23.4109    2.9464 C   0  0  0  0  0  0  0  0  0  0  0  0
    8.9356   23.2085    2.8103 C   0  0  0  0  0  0  0  0  0  0  0  0
   16.4319   22.2009    8.7427 C   0  0  0  0  0  0  0  0  0  0  0  0
   15.7805   21.1876    9.4742 C   0  0  0  0  0  0  0  0  0  0  0  0
   16.5014   20.0710    9.9377 C   0  0  0  0  0  0  0  0  0  0  0  0
   17.8737   19.9637    9.6852 C   0  0  0  0  0  0  0  0  0  0  0  0
   18.5308   20.9725    8.9732 C   0  0  0  0  0  0  0  0  0  0  0  0
   17.8190   22.0898    8.5049 C   0  0  0  0  0  0  0  0  0  0  0  0
   15.6646   23.3981    8.2098 C   0  0  0  0  0  0  0  0  0  0  0  0
   14.6333   23.0726    7.2778 O   0  0  0  0  0  0  0  0  0  0  0  0
   15.0875   22.7008    5.9683 C   0  0  2  0  0  0  0  0  0  0  0  0
   13.9929   23.0018    4.9224 C   0  0  1  0  0  0  0  0  0  0  0  0
   13.5446   24.4587    4.9913 C   0  0  2  0  0  0  0  0  0  0  0  0
   12.1593   24.6682    4.2909 C   0  0  2  0  0  0  0  0  0  0  0  0
   11.0371   24.6784    5.3559 C   0  0  0  0  0  0  0  0  0  0  0  0
   10.7392   23.6958    5.9929 O   0  0  0  0  0  0  0  0  0  0  0  0
   10.3807   25.8826    5.5403 N   0  0  0  0  0  0  0  0  0  0  0  0
   11.9040   23.6179    3.3417 O   0  0  0  0  0  0  0  0  0  0  0  0
   11.2468   24.0265    2.1430 C   0  0  0  0  0  0  0  0  0  0  0  0
   14.5888   25.2414    4.3390 O   0  0  0  0  0  0  0  0  0  0  0  0
   14.5019   22.7491    3.5854 O   0  0  0  0  0  0  0  0  0  0  0  0
   15.2393   21.1676    5.8885 C   0  0  0  0  0  0  0  0  0  0  0  0
   14.2819   20.4627    6.1287 O   0  0  0  0  0  0  0  0  0  0  0  0
   16.4638   20.7045    5.5274 N   0  0  0  0  0  0  0  0  0  0  0  0
   16.7321   19.2766    5.3544 C   0  0  1  0  0  0  0  0  0  0  0  0
   16.7129   18.8382    3.9042 C   0  0  0  0  0  0  0  0  0  0  0  0
   17.6841   17.8486    3.6525 C   0  0  0  0  0  0  0  0  0  0  0  0
   15.8744   19.2888    2.8839 C   0  0  0  0  0  0  0  0  0  0  0  0
   16.0105   18.7357    1.6021 C   0  0  0  0  0  0  0  0  0  0  0  0
   16.9767   17.7395    1.3510 C   0  0  0  0  0  0  0  0  0  0  0  0
   18.1634   18.8111    5.7614 C   0  0  2  0  0  0  0  0  0  0  0  0
   19.0840   19.8697    5.4316 O   0  0  0  0  0  0  0  0  0  0  0  0
   17.8214   17.2876    2.3838 C   0  0  0  0  0  0  0  0  0  0  0  0
   18.4677   17.5476    4.9055 C   0  0  0  0  0  0  0  0  0  0  0  0
    9.2042   26.0209    6.4274 C   0  0  1  0  0  0  0  0  0  0  0  0
    9.4045   26.4152    7.9360 C   0  0  0  0  0  0  0  0  0  0  0  0
    8.6213   27.6635    8.4036 C   0  0  0  0  0  0  0  0  0  0  0  0
   10.8574   26.5093    8.4025 C   0  0  0  0  0  0  0  0  0  0  0  0
    8.2930   26.9921    5.6643 C   0  0  0  0  0  0  0  0  0  0  0  0
    8.7246   27.9869    5.1256 O   0  0  0  0  0  0  0  0  0  0  0  0
    6.9559   26.6270    5.6728 N   0  0  0  0  0  0  0  0  0  0  0  0
    6.0101   27.4645    4.9861 C   0  0  0  0  0  0  0  0  0  0  0  0
    9.7855   26.2239    1.4378 H   0  0  0  0  0  0  0  0  0  0  0  0
    7.3390   26.5744    1.6771 H   0  0  0  0  0  0  0  0  0  0  0  0
    5.9041   24.7766    2.6417 H   0  0  0  0  0  0  0  0  0  0  0  0
    6.9257   22.6213    3.3711 H   0  0  0  0  0  0  0  0  0  0  0  0
    9.3826   22.2674    3.1337 H   0  0  0  0  0  0  0  0  0  0  0  0
   14.7081   21.2602    9.6681 H   0  0  0  0  0  0  0  0  0  0  0  0
   15.9865   19.2807   10.4959 H   0  0  0  0  0  0  0  0  0  0  0  0
   18.4299   19.0990   10.0440 H   0  0  0  0  0  0  0  0  0  0  0  0
   19.6050   20.8866    8.7759 H   0  0  0  0  0  0  0  0  0  0  0  0
   18.3450   22.8664    7.9448 H   0  0  0  0  0  0  0  0  0  0  0  0
   16.3485   24.1152    7.7368 H   0  0  0  0  0  0  0  0  0  0  0  0
   15.1962   23.9258    9.0591 H   0  0  0  0  0  0  0  0  0  0  0  0
   16.0307   23.1914    5.7030 H   0  0  0  0  0  0  0  0  0  0  0  0
   13.1150   22.3733    5.1244 H   0  0  0  0  0  0  0  0  0  0  0  0
   13.5006   24.8034    6.0343 H   0  0  0  0  0  0  0  0  0  0  0  0
   12.1742   25.6376    3.7897 H   0  0  0  0  0  0  0  0  0  0  0  0
   10.5987   26.6659    4.9311 H   0  0  0  0  0  0  0  0  0  0  0  0
   11.7279   24.9476    1.7963 H   0  0  0  0  0  0  0  0  0  0  0  0
   11.4349   23.2568    1.3763 H   0  0  0  0  0  0  0  0  0  0  0  0
   14.6924   24.8902    3.4342 H   0  0  0  0  0  0  0  0  0  0  0  0
   13.7683   22.9083    2.9609 H   0  0  0  0  0  0  0  0  0  0  0  0
   17.1840   21.3592    5.2871 H   0  0  0  0  0  0  0  0  0  0  0  0
   16.0209   18.7156    5.9681 H   0  0  0  0  0  0  0  0  0  0  0  0
   15.1339   20.0616    3.0831 H   0  0  0  0  0  0  0  0  0  0  0  0
   15.3581   19.0775    0.7967 H   0  0  0  0  0  0  0  0  0  0  0  0
   17.0660   17.3166    0.3458 H   0  0  0  0  0  0  0  0  0  0  0  0
   18.2475   18.5870    6.8375 H   0  0  0  0  0  0  0  0  0  0  0  0
   19.9761   19.5593    5.6480 H   0  0  0  0  0  0  0  0  0  0  0  0
   18.5689   16.5205    2.1783 H   0  0  0  0  0  0  0  0  0  0  0  0
   19.5389   17.4397    4.7029 H   0  0  0  0  0  0  0  0  0  0  0  0
   18.0938   16.6353    5.3923 H   0  0  0  0  0  0  0  0  0  0  0  0
    8.7224   25.0396    6.4478 H   0  0  0  0  0  0  0  0  0  0  0  0
    8.9587   25.5877    8.5082 H   0  0  0  0  0  0  0  0  0  0  0  0
    8.7818   27.8620    9.4740 H   0  0  0  0  0  0  0  0  0  0  0  0
    7.5386   27.5304    8.2649 H   0  0  0  0  0  0  0  0  0  0  0  0
    8.9289   28.5581    7.8503 H   0  0  0  0  0  0  0  0  0  0  0  0
   11.4204   25.6229    8.0961 H   0  0  0  0  0  0  0  0  0  0  0  0
   10.9178   26.5693    9.5007 H   0  0  0  0  0  0  0  0  0  0  0  0
   11.3491   27.3970    7.9930 H   0  0  0  0  0  0  0  0  0  0  0  0
    6.6569   25.7737    6.1259 H   0  0  0  0  0  0  0  0  0  0  0  0
    5.0096   27.0387    5.0746 H   0  0  0  0  0  0  0  0  0  0  0  0
    6.2909   27.5404    3.9326 H   0  0  0  0  0  0  0  0  0  0  0  0
    6.0338   28.4601    5.4366 H   0  0  0  0  0  0  0  0  0  0  0  0
  1  2  2  0  0  0  0
  1  6  1  0  0  0  0
  1 23  1  0  0  0  0
  2  3  1  0  0  0  0
  2 47  1  0  0  0  0
  3  4  2  0  0  0  0
  3 48  1  0  0  0  0
  4  5  1  0  0  0  0
  4 49  1  0  0  0  0
  5  6  2  0  0  0  0
  5 50  1  0  0  0  0
  6 51  1  0  0  0  0
  7  8  2  0  0  0  0
  7 12  1  0  0  0  0
  7 13  1  0  0  0  0
  8  9  1  0  0  0  0
  8 52  1  0  0  0  0
  9 10  2  0  0  0  0
  9 53  1  0  0  0  0
 10 11  1  0  0  0  0
 10 54  1  0  0  0  0
 11 12  2  0  0  0  0
 11 55  1  0  0  0  0
 12 56  1  0  0  0  0
 13 14  1  0  0  0  0
 13 57  1  0  0  0  0
 13 58  1  0  0  0  0
 14 15  1  0  0  0  0
 15 16  1  0  0  0  0
 15 26  1  0  0  0  0
 15 59  1  6  0  0  0
 16 17  1  0  0  0  0
 16 25  1  0  0  0  0
 16 60  1  1  0  0  0
 17 18  1  0  0  0  0
 17 24  1  0  0  0  0
 17 61  1  1  0  0  0
 18 19  1  0  0  0  0
 18 22  1  0  0  0  0
 18 62  1  6  0  0  0
 19 20  2  0  0  0  0
 19 21  1  0  0  0  0
 21 39  1  0  0  0  0
 21 63  1  0  0  0  0
 22 23  1  0  0  0  0
 23 64  1  0  0  0  0
 23 65  1  0  0  0  0
 24 66  1  0  0  0  0
 25 67  1  0  0  0  0
 26 27  2  0  0  0  0
 26 28  1  0  0  0  0
 28 29  1  0  0  0  0
 28 68  1  0  0  0  0
 29 30  1  0  0  0  0
 29 35  1  0  0  0  0
 29 69  1  1  0  0  0
 30 31  2  0  0  0  0
 30 32  1  0  0  0  0
 31 37  1  0  0  0  0
 31 38  1  0  0  0  0
 32 33  2  0  0  0  0
 32 70  1  0  0  0  0
 33 34  1  0  0  0  0
 33 71  1  0  0  0  0
 34 37  2  0  0  0  0
 34 72  1  0  0  0  0
 35 36  1  0  0  0  0
 35 38  1  0  0  0  0
 35 73  1  1  0  0  0
 36 74  1  0  0  0  0
 37 75  1  0  0  0  0
 38 76  1  0  0  0  0
 38 77  1  0  0  0  0
 39 40  1  0  0  0  0
 39 43  1  0  0  0  0
 39 78  1  6  0  0  0
 40 41  1  0  0  0  0
 40 42  1  0  0  0  0
 40 79  1  0  0  0  0
 41 80  1  0  0  0  0
 41 81  1  0  0  0  0
 41 82  1  0  0  0  0
 42 83  1  0  0  0  0
 42 84  1  0  0  0  0
 42 85  1  0  0  0  0
 43 44  2  0  0  0  0
 43 45  1  0  0  0  0
 45 46  1  0  0  0  0
 45 86  1  0  0  0  0
 46 87  1  0  0  0  0
 46 88  1  0  0  0  0
 46 89  1  0  0  0  0
M  END
$$$$
