BED
 OpenBabel04041914253D

 88 93  0  0  1  0  0  0  0  0999 V2000
   16.6001   22.0416    8.7045 C   0  0  0  0  0  0  0  0  0  0  0  0
   17.9718   21.8638    8.4719 C   0  0  0  0  0  0  0  0  0  0  0  0
   18.6297   20.7127    8.9090 C   0  0  0  0  0  0  0  0  0  0  0  0
   17.9248   19.7189    9.5841 C   0  0  0  0  0  0  0  0  0  0  0  0
   16.5608   19.8814    9.8235 C   0  0  0  0  0  0  0  0  0  0  0  0
   15.9103   21.0379    9.3906 C   0  0  0  0  0  0  0  0  0  0  0  0
    9.8148   23.8951    2.3128 C   0  0  0  0  0  0  0  0  0  0  0  0
    8.8248   22.9933    2.7127 C   0  0  0  0  0  0  0  0  0  0  0  0
    7.4761   23.3491    2.7102 C   0  0  0  0  0  0  0  0  0  0  0  0
    7.0948   24.6177    2.2785 C   0  0  0  0  0  0  0  0  0  0  0  0
    8.0663   25.5252    1.8569 C   0  0  0  0  0  0  0  0  0  0  0  0
    9.4167   25.1671    1.8717 C   0  0  0  0  0  0  0  0  0  0  0  0
   11.2718   23.5151    2.3209 C   0  0  0  0  0  0  0  0  0  0  0  0
   11.8017   23.1520    3.5936 O   0  0  0  0  0  0  0  0  0  0  0  0
   11.8794   24.2210    4.5395 C   0  0  2  0  0  0  0  0  0  0  0  0
   12.9585   23.9172    5.5951 C   0  0  1  0  0  0  0  0  0  0  0  0
   14.3229   23.5463    4.9934 C   0  0  2  0  0  0  0  0  0  0  0  0
   15.2464   22.8514    6.0245 C   0  0  2  0  0  0  0  0  0  0  0  0
   15.1686   21.3270    5.7984 C   0  0  0  0  0  0  0  0  0  0  0  0
   14.1260   20.6915    5.9109 O   0  0  0  0  0  0  0  0  0  0  0  0
   16.3744   20.7610    5.4922 N   0  0  0  0  0  0  0  0  0  0  0  0
   14.8605   23.1928    7.3637 O   0  0  0  0  0  0  0  0  0  0  0  0
   15.9410   23.3261    8.2794 C   0  0  0  0  0  0  0  0  0  0  0  0
   14.9747   24.7699    4.5671 O   0  0  0  0  0  0  0  0  0  0  0  0
   13.1707   25.0890    6.4267 O   0  0  0  0  0  0  0  0  0  0  0  0
   10.5859   24.2807    5.3560 C   0  0  0  0  0  0  0  0  0  0  0  0
   10.1345   23.3069    5.9573 O   0  0  0  0  0  0  0  0  0  0  0  0
    9.9703   25.5051    5.3865 N   0  0  0  0  0  0  0  0  0  0  0  0
    8.8330   25.7115    6.2373 C   0  0  1  0  0  0  0  0  0  0  0  0
    9.1469   26.4773    7.4960 C   0  0  0  0  0  0  0  0  0  0  0  0
    8.0701   27.3151    7.8215 C   0  0  0  0  0  0  0  0  0  0  0  0
   10.2622   26.4032    8.3155 C   0  0  0  0  0  0  0  0  0  0  0  0
   10.2930   27.1893    9.4691 C   0  0  0  0  0  0  0  0  0  0  0  0
    9.2061   28.0135    9.8010 C   0  0  0  0  0  0  0  0  0  0  0  0
    7.7650   26.6249    5.5939 C   0  0  2  0  0  0  0  0  0  0  0  0
    8.3873   27.6728    4.8201 O   0  0  0  0  0  0  0  0  0  0  0  0
    8.0792   28.0745    8.9780 C   0  0  0  0  0  0  0  0  0  0  0  0
    6.9867   27.2115    6.7866 C   0  0  0  0  0  0  0  0  0  0  0  0
   16.5349   19.3424    5.2716 C   0  0  1  0  0  0  0  0  0  0  0  0
   16.4893   18.9434    3.8212 C   0  0  0  0  0  0  0  0  0  0  0  0
   17.4232   17.9285    3.5641 C   0  0  0  0  0  0  0  0  0  0  0  0
   15.6527   19.4043    2.8162 C   0  0  0  0  0  0  0  0  0  0  0  0
   15.7674   18.8414    1.5430 C   0  0  0  0  0  0  0  0  0  0  0  0
   16.6891   17.8124    1.2952 C   0  0  0  0  0  0  0  0  0  0  0  0
   17.9619   18.8565    5.6555 C   0  0  2  0  0  0  0  0  0  0  0  0
   18.9396   19.8810    5.3605 O   0  0  0  0  0  0  0  0  0  0  0  0
   17.5207   17.3413    2.3131 C   0  0  0  0  0  0  0  0  0  0  0  0
   18.2078   17.5986    4.7998 C   0  0  0  0  0  0  0  0  0  0  0  0
   14.6089   21.1860    9.6761 F   0  0  0  0  0  0  0  0  0  0  0  0
    9.1582   21.7545    3.0973 F   0  0  0  0  0  0  0  0  0  0  0  0
   18.5441   22.6314    7.9553 H   0  0  0  0  0  0  0  0  0  0  0  0
   19.6948   20.5982    8.7226 H   0  0  0  0  0  0  0  0  0  0  0  0
   18.4386   18.8246    9.9271 H   0  0  0  0  0  0  0  0  0  0  0  0
   16.0024   19.1194   10.3589 H   0  0  0  0  0  0  0  0  0  0  0  0
    6.7345   22.6304    3.0400 H   0  0  0  0  0  0  0  0  0  0  0  0
    6.0467   24.9011    2.2738 H   0  0  0  0  0  0  0  0  0  0  0  0
    7.7741   26.5154    1.5163 H   0  0  0  0  0  0  0  0  0  0  0  0
   10.1573   25.8918    1.5419 H   0  0  0  0  0  0  0  0  0  0  0  0
   11.8907   24.3163    1.8978 H   0  0  0  0  0  0  0  0  0  0  0  0
   11.4021   22.6521    1.6577 H   0  0  0  0  0  0  0  0  0  0  0  0
   12.0847   25.1789    4.0454 H   0  0  0  0  0  0  0  0  0  0  0  0
   12.6104   23.0990    6.2374 H   0  0  0  0  0  0  0  0  0  0  0  0
   14.2202   22.9265    4.0974 H   0  0  0  0  0  0  0  0  0  0  0  0
   16.2715   23.1901    5.8394 H   0  0  0  0  0  0  0  0  0  0  0  0
   17.2078   21.3111    5.3214 H   0  0  0  0  0  0  0  0  0  0  0  0
   16.6736   24.0183    7.8478 H   0  0  0  0  0  0  0  0  0  0  0  0
   15.5483   23.8254    9.1719 H   0  0  0  0  0  0  0  0  0  0  0  0
   14.7729   25.4231    5.2698 H   0  0  0  0  0  0  0  0  0  0  0  0
   13.6269   24.7365    7.2201 H   0  0  0  0  0  0  0  0  0  0  0  0
   10.3653   26.3243    4.9414 H   0  0  0  0  0  0  0  0  0  0  0  0
    8.3721   24.7579    6.5233 H   0  0  0  0  0  0  0  0  0  0  0  0
   11.0954   25.7505    8.0701 H   0  0  0  0  0  0  0  0  0  0  0  0
   11.1631   27.1569   10.1202 H   0  0  0  0  0  0  0  0  0  0  0  0
    9.2430   28.6089   10.7100 H   0  0  0  0  0  0  0  0  0  0  0  0
    7.1182   26.0697    4.9090 H   0  0  0  0  0  0  0  0  0  0  0  0
    7.6797   28.2646    4.5195 H   0  0  0  0  0  0  0  0  0  0  0  0
    7.2383   28.7074    9.2402 H   0  0  0  0  0  0  0  0  0  0  0  0
    6.5460   28.1849    6.5605 H   0  0  0  0  0  0  0  0  0  0  0  0
    6.2230   26.5063    7.1326 H   0  0  0  0  0  0  0  0  0  0  0  0
   15.7780   18.7731    5.8264 H   0  0  0  0  0  0  0  0  0  0  0  0
   14.9199   20.1822    3.0091 H   0  0  0  0  0  0  0  0  0  0  0  0
   15.1276   19.1967    0.7387 H   0  0  0  0  0  0  0  0  0  0  0  0
   16.7519   17.3772    0.3007 H   0  0  0  0  0  0  0  0  0  0  0  0
   18.0493   18.6464    6.7252 H   0  0  0  0  0  0  0  0  0  0  0  0
   19.8174   19.5006    5.5349 H   0  0  0  0  0  0  0  0  0  0  0  0
   18.2255   16.5391    2.1200 H   0  0  0  0  0  0  0  0  0  0  0  0
   19.2663   17.4398    4.5777 H   0  0  0  0  0  0  0  0  0  0  0  0
   17.7741   16.7140    5.2784 H   0  0  0  0  0  0  0  0  0  0  0  0
  1  2  2  0  0  0  0
  1  6  1  0  0  0  0
  1 23  1  0  0  0  0
  2  3  1  0  0  0  0
  2 51  1  0  0  0  0
  3  4  2  0  0  0  0
  3 52  1  0  0  0  0
  4  5  1  0  0  0  0
  4 53  1  0  0  0  0
  5  6  2  0  0  0  0
  5 54  1  0  0  0  0
  6 49  1  0  0  0  0
  7  8  2  0  0  0  0
  7 12  1  0  0  0  0
  7 13  1  0  0  0  0
  8  9  1  0  0  0  0
  8 50  1  0  0  0  0
  9 10  2  0  0  0  0
  9 55  1  0  0  0  0
 10 11  1  0  0  0  0
 10 56  1  0  0  0  0
 11 12  2  0  0  0  0
 11 57  1  0  0  0  0
 12 58  1  0  0  0  0
 13 14  1  0  0  0  0
 13 59  1  0  0  0  0
 13 60  1  0  0  0  0
 14 15  1  0  0  0  0
 15 16  1  0  0  0  0
 15 26  1  0  0  0  0
 15 61  1  6  0  0  0
 16 17  1  0  0  0  0
 16 25  1  0  0  0  0
 16 62  1  1  0  0  0
 17 18  1  0  0  0  0
 17 24  1  0  0  0  0
 17 63  1  6  0  0  0
 18 19  1  0  0  0  0
 18 22  1  0  0  0  0
 18 64  1  6  0  0  0
 19 20  2  0  0  0  0
 19 21  1  0  0  0  0
 21 39  1  0  0  0  0
 21 65  1  0  0  0  0
 22 23  1  0  0  0  0
 23 66  1  0  0  0  0
 23 67  1  0  0  0  0
 24 68  1  0  0  0  0
 25 69  1  0  0  0  0
 26 27  2  0  0  0  0
 26 28  1  0  0  0  0
 28 29  1  0  0  0  0
 28 70  1  0  0  0  0
 29 30  1  0  0  0  0
 29 35  1  0  0  0  0
 29 71  1  1  0  0  0
 30 31  2  0  0  0  0
 30 32  1  0  0  0  0
 31 37  1  0  0  0  0
 31 38  1  0  0  0  0
 32 33  2  0  0  0  0
 32 72  1  0  0  0  0
 33 34  1  0  0  0  0
 33 73  1  0  0  0  0
 34 37  2  0  0  0  0
 34 74  1  0  0  0  0
 35 36  1  0  0  0  0
 35 38  1  0  0  0  0
 35 75  1  6  0  0  0
 36 76  1  0  0  0  0
 37 77  1  0  0  0  0
 38 78  1  0  0  0  0
 38 79  1  0  0  0  0
 39 40  1  0  0  0  0
 39 45  1  0  0  0  0
 39 80  1  1  0  0  0
 40 41  2  0  0  0  0
 40 42  1  0  0  0  0
 41 47  1  0  0  0  0
 41 48  1  0  0  0  0
 42 43  2  0  0  0  0
 42 81  1  0  0  0  0
 43 44  1  0  0  0  0
 43 82  1  0  0  0  0
 44 47  2  0  0  0  0
 44 83  1  0  0  0  0
 45 46  1  0  0  0  0
 45 48  1  0  0  0  0
 45 84  1  1  0  0  0
 46 85  1  0  0  0  0
 47 86  1  0  0  0  0
 48 87  1  0  0  0  0
 48 88  1  0  0  0  0
M  END
$$$$
