BEE
 OpenBabel04041914253D

104107  0  0  1  0  0  0  0  0999 V2000
    9.7035   24.2350    2.0572 C   0  0  0  0  0  0  0  0  0  0  0  0
    8.8582   25.3217    1.8057 C   0  0  0  0  0  0  0  0  0  0  0  0
    7.4850   25.2356    2.0615 C   0  0  0  0  0  0  0  0  0  0  0  0
    6.9292   24.0596    2.5784 C   0  0  0  0  0  0  0  0  0  0  0  0
    7.7711   22.9673    2.8168 C   0  0  0  0  0  0  0  0  0  0  0  0
    9.1443   23.0511    2.5538 C   0  0  0  0  0  0  0  0  0  0  0  0
   16.1348   22.2323    8.4846 C   0  0  0  0  0  0  0  0  0  0  0  0
   15.3182   21.3761    9.2330 C   0  0  0  0  0  0  0  0  0  0  0  0
   15.8523   20.2415    9.8500 C   0  0  0  0  0  0  0  0  0  0  0  0
   17.2145   19.9400    9.7345 C   0  0  0  0  0  0  0  0  0  0  0  0
   18.0311   20.8070    8.9958 C   0  0  0  0  0  0  0  0  0  0  0  0
   17.4972   21.9397    8.3735 C   0  0  0  0  0  0  0  0  0  0  0  0
   15.5508   23.4496    7.8203 C   0  0  0  0  0  0  0  0  0  0  0  0
   14.5144   23.1163    6.9015 O   0  0  0  0  0  0  0  0  0  0  0  0
   14.9906   22.6873    5.6237 C   0  0  2  0  0  0  0  0  0  0  0  0
   13.9322   23.0378    4.5599 C   0  0  1  0  0  0  0  0  0  0  0  0
   13.5089   24.5243    4.6170 C   0  0  2  0  0  0  0  0  0  0  0  0
   12.1797   24.7965    3.8660 C   0  0  2  0  0  0  0  0  0  0  0  0
   11.0583   24.7026    4.9186 C   0  0  0  0  0  0  0  0  0  0  0  0
   10.7313   23.6455    5.4514 O   0  0  0  0  0  0  0  0  0  0  0  0
   10.4862   25.9109    5.2435 N   0  0  0  0  0  0  0  0  0  0  0  0
    9.3576   26.0314    6.1670 C   0  0  1  0  0  0  0  0  0  0  0  0
    9.8031   26.6689    7.5043 C   0  0  0  0  0  0  0  0  0  0  0  0
    8.6377   26.8314    8.4859 C   0  0  0  0  0  0  0  0  0  0  0  0
   10.9127   25.8616    8.1903 C   0  0  0  0  0  0  0  0  0  0  0  0
    8.3622   26.9527    5.4292 C   0  0  0  0  0  0  0  0  0  0  0  0
    8.7445   27.9321    4.7860 O   0  0  0  0  0  0  0  0  0  0  0  0
    7.0323   26.6243    5.5726 N   0  0  0  0  0  0  0  0  0  0  0  0
    6.0113   27.4071    4.9237 C   0  0  0  0  0  0  0  0  0  0  0  0
   12.0352   23.8749    2.7774 O   0  0  0  0  0  0  0  0  0  0  0  0
   11.1741   24.3318    1.7348 C   0  0  0  0  0  0  0  0  0  0  0  0
   14.5524   25.3192    4.0037 O   0  0  0  0  0  0  0  0  0  0  0  0
   14.4709   22.8036    3.2371 O   0  0  0  0  0  0  0  0  0  0  0  0
   15.1758   21.1559    5.5716 C   0  0  0  0  0  0  0  0  0  0  0  0
   14.3350   20.3575    5.9832 O   0  0  0  0  0  0  0  0  0  0  0  0
   16.3532   20.7495    4.9866 N   0  0  0  0  0  0  0  0  0  0  0  0
   16.7131   19.3460    4.8198 C   0  0  1  0  0  0  0  0  0  0  0  0
   16.7589   18.9742    3.3179 C   0  0  0  0  0  0  0  0  0  0  0  0
   15.3964   19.1761    2.6408 C   0  0  0  0  0  0  0  0  0  0  0  0
   17.2124   17.5289    3.0978 C   0  0  0  0  0  0  0  0  0  0  0  0
   18.1114   19.2295    5.4530 C   0  0  0  0  0  0  0  0  0  0  0  0
   19.0229   20.0150    5.1750 O   0  0  0  0  0  0  0  0  0  0  0  0
   18.2733   18.1813    6.3342 N   0  0  0  0  0  0  0  0  0  0  0  0
   19.5343   17.9723    6.9952 C   0  0  0  0  0  0  0  0  0  0  0  0
    2.9451   24.2455    2.6848 S   0  0  0  0  0  0  0  0  0  0  0  0
    3.5463   23.4289    4.0596 C   0  0  0  0  0  0  0  0  0  0  0  0
    4.9213   23.3498    4.0508 C   0  0  0  0  0  0  0  0  0  0  0  0
    5.5050   23.9719    2.8980 C   0  0  0  0  0  0  0  0  0  0  0  0
    4.5256   24.4900    2.0713 C   0  0  0  0  0  0  0  0  0  0  0  0
   19.3916   17.1313   11.5567 S   0  0  0  0  0  0  0  0  0  0  0  0
   19.0227   18.6657   10.8916 C   0  0  0  0  0  0  0  0  0  0  0  0
   17.7501   18.7267   10.3536 C   0  0  0  0  0  0  0  0  0  0  0  0
   17.0743   17.4705   10.5151 C   0  0  0  0  0  0  0  0  0  0  0  0
   17.8470   16.5256   11.1535 C   0  0  0  0  0  0  0  0  0  0  0  0
    9.2571   26.2536    1.4093 H   0  0  0  0  0  0  0  0  0  0  0  0
    6.8650   26.1074    1.8687 H   0  0  0  0  0  0  0  0  0  0  0  0
    7.3702   22.0324    3.2029 H   0  0  0  0  0  0  0  0  0  0  0  0
    9.7755   22.1868    2.7534 H   0  0  0  0  0  0  0  0  0  0  0  0
   14.2529   21.5822    9.3236 H   0  0  0  0  0  0  0  0  0  0  0  0
   15.1856   19.6019   10.4229 H   0  0  0  0  0  0  0  0  0  0  0  0
   19.0916   20.6070    8.8709 H   0  0  0  0  0  0  0  0  0  0  0  0
   18.1571   22.5812    7.7933 H   0  0  0  0  0  0  0  0  0  0  0  0
   16.3168   24.0637    7.3318 H   0  0  0  0  0  0  0  0  0  0  0  0
   15.1025   24.0797    8.5972 H   0  0  0  0  0  0  0  0  0  0  0  0
   15.9351   23.1840    5.3684 H   0  0  0  0  0  0  0  0  0  0  0  0
   13.0586   22.3893    4.6982 H   0  0  0  0  0  0  0  0  0  0  0  0
   13.4250   24.8840    5.6475 H   0  0  0  0  0  0  0  0  0  0  0  0
   12.2210   25.8175    3.4651 H   0  0  0  0  0  0  0  0  0  0  0  0
   10.6927   26.7410    4.6951 H   0  0  0  0  0  0  0  0  0  0  0  0
    8.9057   25.0464    6.3308 H   0  0  0  0  0  0  0  0  0  0  0  0
   10.2051   27.6703    7.2982 H   0  0  0  0  0  0  0  0  0  0  0  0
    8.9853   27.2752    9.4257 H   0  0  0  0  0  0  0  0  0  0  0  0
    8.1773   25.8655    8.7199 H   0  0  0  0  0  0  0  0  0  0  0  0
    7.8640   27.4937    8.0871 H   0  0  0  0  0  0  0  0  0  0  0  0
   11.7889   25.7445    7.5460 H   0  0  0  0  0  0  0  0  0  0  0  0
   10.5608   24.8647    8.4761 H   0  0  0  0  0  0  0  0  0  0  0  0
   11.2514   26.3730    9.0984 H   0  0  0  0  0  0  0  0  0  0  0  0
    6.7857   25.7087    5.9281 H   0  0  0  0  0  0  0  0  0  0  0  0
    5.0424   26.9279    5.0781 H   0  0  0  0  0  0  0  0  0  0  0  0
    6.2265   27.4838    3.8549 H   0  0  0  0  0  0  0  0  0  0  0  0
    6.0068   28.4101    5.3589 H   0  0  0  0  0  0  0  0  0  0  0  0
   11.4600   25.3479    1.4405 H   0  0  0  0  0  0  0  0  0  0  0  0
   11.3641   23.6914    0.8659 H   0  0  0  0  0  0  0  0  0  0  0  0
   14.8674   24.7867    3.2439 H   0  0  0  0  0  0  0  0  0  0  0  0
   13.6855   22.8131    2.6489 H   0  0  0  0  0  0  0  0  0  0  0  0
   17.0646   21.4294    4.7433 H   0  0  0  0  0  0  0  0  0  0  0  0
   16.0033   18.7062    5.3530 H   0  0  0  0  0  0  0  0  0  0  0  0
   17.4791   19.6306    2.8123 H   0  0  0  0  0  0  0  0  0  0  0  0
   15.4460   18.9019    1.5811 H   0  0  0  0  0  0  0  0  0  0  0  0
   15.0770   20.2209    2.6857 H   0  0  0  0  0  0  0  0  0  0  0  0
   14.6214   18.5630    3.1129 H   0  0  0  0  0  0  0  0  0  0  0  0
   18.1960   17.3432    3.5389 H   0  0  0  0  0  0  0  0  0  0  0  0
   17.2956   17.3139    2.0262 H   0  0  0  0  0  0  0  0  0  0  0  0
   16.5016   16.8182    3.5309 H   0  0  0  0  0  0  0  0  0  0  0  0
   17.4442   17.7530    6.7292 H   0  0  0  0  0  0  0  0  0  0  0  0
   19.4241   17.1724    7.7291 H   0  0  0  0  0  0  0  0  0  0  0  0
   19.8558   18.8932    7.4854 H   0  0  0  0  0  0  0  0  0  0  0  0
   20.2803   17.6933    6.2452 H   0  0  0  0  0  0  0  0  0  0  0  0
    2.8651   23.0422    4.8054 H   0  0  0  0  0  0  0  0  0  0  0  0
    5.4857   22.8673    4.8397 H   0  0  0  0  0  0  0  0  0  0  0  0
    4.6466   24.9959    1.1232 H   0  0  0  0  0  0  0  0  0  0  0  0
   19.7674   19.4482   10.9430 H   0  0  0  0  0  0  0  0  0  0  0  0
   16.0647   17.2677   10.1780 H   0  0  0  0  0  0  0  0  0  0  0  0
   17.5768   15.5087   11.4034 H   0  0  0  0  0  0  0  0  0  0  0  0
  1  2  2  0  0  0  0
  1  6  1  0  0  0  0
  1 31  1  0  0  0  0
  2  3  1  0  0  0  0
  2 55  1  0  0  0  0
  3  4  2  0  0  0  0
  3 56  1  0  0  0  0
  4  5  1  0  0  0  0
  4 48  1  0  0  0  0
  5  6  2  0  0  0  0
  5 57  1  0  0  0  0
  6 58  1  0  0  0  0
  7  8  2  0  0  0  0
  7 12  1  0  0  0  0
  7 13  1  0  0  0  0
  8  9  1  0  0  0  0
  8 59  1  0  0  0  0
  9 10  2  0  0  0  0
  9 60  1  0  0  0  0
 10 11  1  0  0  0  0
 10 52  1  0  0  0  0
 11 12  2  0  0  0  0
 11 61  1  0  0  0  0
 12 62  1  0  0  0  0
 13 14  1  0  0  0  0
 13 63  1  0  0  0  0
 13 64  1  0  0  0  0
 14 15  1  0  0  0  0
 15 16  1  0  0  0  0
 15 34  1  0  0  0  0
 15 65  1  6  0  0  0
 16 17  1  0  0  0  0
 16 33  1  0  0  0  0
 16 66  1  1  0  0  0
 17 18  1  0  0  0  0
 17 32  1  0  0  0  0
 17 67  1  1  0  0  0
 18 19  1  0  0  0  0
 18 30  1  0  0  0  0
 18 68  1  6  0  0  0
 19 20  2  0  0  0  0
 19 21  1  0  0  0  0
 21 22  1  0  0  0  0
 21 69  1  0  0  0  0
 22 23  1  0  0  0  0
 22 26  1  0  0  0  0
 22 70  1  1  0  0  0
 23 24  1  0  0  0  0
 23 25  1  0  0  0  0
 23 71  1  0  0  0  0
 24 72  1  0  0  0  0
 24 73  1  0  0  0  0
 24 74  1  0  0  0  0
 25 75  1  0  0  0  0
 25 76  1  0  0  0  0
 25 77  1  0  0  0  0
 26 27  2  0  0  0  0
 26 28  1  0  0  0  0
 28 29  1  0  0  0  0
 28 78  1  0  0  0  0
 29 79  1  0  0  0  0
 29 80  1  0  0  0  0
 29 81  1  0  0  0  0
 30 31  1  0  0  0  0
 31 82  1  0  0  0  0
 31 83  1  0  0  0  0
 32 84  1  0  0  0  0
 33 85  1  0  0  0  0
 34 35  2  0  0  0  0
 34 36  1  0  0  0  0
 36 37  1  0  0  0  0
 36 86  1  0  0  0  0
 37 38  1  0  0  0  0
 37 41  1  0  0  0  0
 37 87  1  1  0  0  0
 38 39  1  0  0  0  0
 38 40  1  0  0  0  0
 38 88  1  0  0  0  0
 39 89  1  0  0  0  0
 39 90  1  0  0  0  0
 39 91  1  0  0  0  0
 40 92  1  0  0  0  0
 40 93  1  0  0  0  0
 40 94  1  0  0  0  0
 41 42  2  0  0  0  0
 41 43  1  0  0  0  0
 43 44  1  0  0  0  0
 43 95  1  0  0  0  0
 44 96  1  0  0  0  0
 44 97  1  0  0  0  0
 44 98  1  0  0  0  0
 45 46  1  0  0  0  0
 45 49  1  0  0  0  0
 46 47  2  0  0  0  0
 46 99  1  0  0  0  0
 47 48  1  0  0  0  0
 47100  1  0  0  0  0
 48 49  2  0  0  0  0
 49101  1  0  0  0  0
 50 51  1  0  0  0  0
 50 54  1  0  0  0  0
 51 52  2  0  0  0  0
 51102  1  0  0  0  0
 52 53  1  0  0  0  0
 53 54  2  0  0  0  0
 53103  1  0  0  0  0
 54104  1  0  0  0  0
M  END
$$$$
