BEI
 OpenBabel04041914253D

 98 99  0  0  1  0  0  0  0  0999 V2000
    9.9136   24.1912    2.2128 C   0  0  0  0  0  0  0  0  0  0  0  0
    9.2247   25.3501    1.8270 C   0  0  0  0  0  0  0  0  0  0  0  0
    7.8355   25.4225    1.9335 C   0  0  0  0  0  0  0  0  0  0  0  0
    7.1137   24.3383    2.4252 C   0  0  0  0  0  0  0  0  0  0  0  0
    7.7833   23.1748    2.8001 C   0  0  0  0  0  0  0  0  0  0  0  0
    9.1750   23.0966    2.6849 C   0  0  0  0  0  0  0  0  0  0  0  0
   16.4668   22.1906    8.7479 C   0  0  0  0  0  0  0  0  0  0  0  0
   15.5634   21.2240    9.4762 C   0  0  0  0  0  0  0  0  0  0  0  0
   16.2681   20.0165   10.0348 C   0  0  0  0  0  0  0  0  0  0  0  0
   17.5902   19.8229    9.9221 C   0  0  0  0  0  0  0  0  0  0  0  0
   18.4957   20.8020    9.2381 C   0  0  0  0  0  0  0  0  0  0  0  0
   17.7969   21.9946    8.6624 C   0  0  0  0  0  0  0  0  0  0  0  0
   15.8151   23.4076    8.1521 C   0  0  0  0  0  0  0  0  0  0  0  0
   14.7525   23.0693    7.2630 O   0  0  0  0  0  0  0  0  0  0  0  0
   15.1878   22.6802    5.9534 C   0  0  2  0  0  0  0  0  0  0  0  0
   14.0977   23.0165    4.9156 C   0  0  1  0  0  0  0  0  0  0  0  0
   13.6206   24.4777    4.9849 C   0  0  2  0  0  0  0  0  0  0  0  0
   12.2693   24.6921    4.2382 C   0  0  2  0  0  0  0  0  0  0  0  0
   11.1141   24.6389    5.2646 C   0  0  0  0  0  0  0  0  0  0  0  0
   10.8068   23.6113    5.8642 O   0  0  0  0  0  0  0  0  0  0  0  0
   10.4537   25.8348    5.4577 N   0  0  0  0  0  0  0  0  0  0  0  0
    9.2587   25.9718    6.3066 C   0  0  1  0  0  0  0  0  0  0  0  0
    9.5934   26.6605    7.6606 C   0  0  1  0  0  0  0  0  0  0  0  0
    8.3235   26.8799    8.5028 C   0  0  0  0  0  0  0  0  0  0  0  0
   10.6360   25.8749    8.4871 C   0  0  0  0  0  0  0  0  0  0  0  0
   11.2990   26.7409    9.5546 C   0  0  0  0  0  0  0  0  0  0  0  0
    8.3028   26.8843    5.5010 C   0  0  0  0  0  0  0  0  0  0  0  0
    8.6965   27.9387    4.9974 O   0  0  0  0  0  0  0  0  0  0  0  0
    6.9918   26.4685    5.4143 N   0  0  0  0  0  0  0  0  0  0  0  0
    6.0315   27.2626    4.6893 C   0  0  0  0  0  0  0  0  0  0  0  0
   12.1156   23.6925    3.2146 O   0  0  0  0  0  0  0  0  0  0  0  0
   11.4120   24.1314    2.0553 C   0  0  0  0  0  0  0  0  0  0  0  0
   14.6334   25.3095    4.3646 O   0  0  0  0  0  0  0  0  0  0  0  0
   14.6252   22.8046    3.5791 O   0  0  0  0  0  0  0  0  0  0  0  0
   15.3409   21.1544    5.8506 C   0  0  0  0  0  0  0  0  0  0  0  0
   14.4498   20.3706    6.1878 O   0  0  0  0  0  0  0  0  0  0  0  0
   16.5238   20.7148    5.3038 N   0  0  0  0  0  0  0  0  0  0  0  0
   16.8049   19.2929    5.1278 C   0  0  1  0  0  0  0  0  0  0  0  0
   16.7552   18.8779    3.6351 C   0  0  1  0  0  0  0  0  0  0  0  0
   17.2220   17.4257    3.4450 C   0  0  0  0  0  0  0  0  0  0  0  0
   15.3277   19.0306    3.0492 C   0  0  0  0  0  0  0  0  0  0  0  0
   15.3350   19.0753    1.5240 C   0  0  0  0  0  0  0  0  0  0  0  0
   18.2179   19.1026    5.7010 C   0  0  0  0  0  0  0  0  0  0  0  0
   19.1676   19.8122    5.3381 O   0  0  0  0  0  0  0  0  0  0  0  0
   18.3525   18.1003    6.6325 N   0  0  0  0  0  0  0  0  0  0  0  0
   19.6408   17.8438    7.2177 C   0  0  0  0  0  0  0  0  0  0  0  0
    9.7652   26.2100    1.4361 H   0  0  0  0  0  0  0  0  0  0  0  0
    7.3212   26.3353    1.6394 H   0  0  0  0  0  0  0  0  0  0  0  0
    6.0334   24.4017    2.5197 H   0  0  0  0  0  0  0  0  0  0  0  0
    7.2208   22.3270    3.1872 H   0  0  0  0  0  0  0  0  0  0  0  0
    9.6809   22.1780    2.9773 H   0  0  0  0  0  0  0  0  0  0  0  0
   14.7875   20.8683    8.7928 H   0  0  0  0  0  0  0  0  0  0  0  0
   15.0729   21.7479   10.3076 H   0  0  0  0  0  0  0  0  0  0  0  0
   15.6511   19.2823   10.5454 H   0  0  0  0  0  0  0  0  0  0  0  0
   18.0467   18.9297   10.3386 H   0  0  0  0  0  0  0  0  0  0  0  0
   18.9945   20.3014    8.4110 H   0  0  0  0  0  0  0  0  0  0  0  0
   19.2658   21.1313    9.9428 H   0  0  0  0  0  0  0  0  0  0  0  0
   18.4334   22.7086    8.1460 H   0  0  0  0  0  0  0  0  0  0  0  0
   16.5368   24.0599    7.6454 H   0  0  0  0  0  0  0  0  0  0  0  0
   15.3828   24.0017    8.9670 H   0  0  0  0  0  0  0  0  0  0  0  0
   16.1236   23.1837    5.6838 H   0  0  0  0  0  0  0  0  0  0  0  0
   13.2386   22.3502    5.0642 H   0  0  0  0  0  0  0  0  0  0  0  0
   13.5380   24.8246    6.0186 H   0  0  0  0  0  0  0  0  0  0  0  0
   12.3031   25.6848    3.7735 H   0  0  0  0  0  0  0  0  0  0  0  0
   10.6892   26.6448    4.8928 H   0  0  0  0  0  0  0  0  0  0  0  0
    8.8017   24.9890    6.4657 H   0  0  0  0  0  0  0  0  0  0  0  0
   10.0158   27.6505    7.4388 H   0  0  0  0  0  0  0  0  0  0  0  0
    8.5515   27.3635    9.4573 H   0  0  0  0  0  0  0  0  0  0  0  0
    7.8241   25.9297    8.7200 H   0  0  0  0  0  0  0  0  0  0  0  0
    7.6081   27.5318    7.9923 H   0  0  0  0  0  0  0  0  0  0  0  0
   11.4338   25.4897    7.8457 H   0  0  0  0  0  0  0  0  0  0  0  0
   10.1646   25.0062    8.9623 H   0  0  0  0  0  0  0  0  0  0  0  0
   12.0396   26.1598   10.1129 H   0  0  0  0  0  0  0  0  0  0  0  0
   10.5736   27.1300   10.2732 H   0  0  0  0  0  0  0  0  0  0  0  0
   11.8157   27.5906    9.0957 H   0  0  0  0  0  0  0  0  0  0  0  0
    6.7226   25.5564    5.7622 H   0  0  0  0  0  0  0  0  0  0  0  0
    5.0654   26.7531    4.6804 H   0  0  0  0  0  0  0  0  0  0  0  0
    6.3800   27.4171    3.6645 H   0  0  0  0  0  0  0  0  0  0  0  0
    5.9391   28.2357    5.1787 H   0  0  0  0  0  0  0  0  0  0  0  0
   11.8217   25.0960    1.7373 H   0  0  0  0  0  0  0  0  0  0  0  0
   11.6422   23.4200    1.2537 H   0  0  0  0  0  0  0  0  0  0  0  0
   14.8926   24.8487    3.5400 H   0  0  0  0  0  0  0  0  0  0  0  0
   13.8475   22.8891    2.9883 H   0  0  0  0  0  0  0  0  0  0  0  0
   17.2637   21.3734    5.0771 H   0  0  0  0  0  0  0  0  0  0  0  0
   16.0867   18.7034    5.7094 H   0  0  0  0  0  0  0  0  0  0  0  0
   17.4313   19.5293    3.0702 H   0  0  0  0  0  0  0  0  0  0  0  0
   17.1879   17.1278    2.3931 H   0  0  0  0  0  0  0  0  0  0  0  0
   16.5905   16.7311    4.0099 H   0  0  0  0  0  0  0  0  0  0  0  0
   18.2567   17.2897    3.7723 H   0  0  0  0  0  0  0  0  0  0  0  0
   14.8643   19.9599    3.3929 H   0  0  0  0  0  0  0  0  0  0  0  0
   14.6864   18.2138    3.3899 H   0  0  0  0  0  0  0  0  0  0  0  0
   14.3145   19.1978    1.1435 H   0  0  0  0  0  0  0  0  0  0  0  0
   15.7500   18.1606    1.0943 H   0  0  0  0  0  0  0  0  0  0  0  0
   15.9287   19.9218    1.1645 H   0  0  0  0  0  0  0  0  0  0  0  0
   17.5248   17.6636    7.0260 H   0  0  0  0  0  0  0  0  0  0  0  0
   19.5479   17.0686    7.9801 H   0  0  0  0  0  0  0  0  0  0  0  0
   20.0415   18.7555    7.6629 H   0  0  0  0  0  0  0  0  0  0  0  0
   20.3247   17.5320    6.4253 H   0  0  0  0  0  0  0  0  0  0  0  0
  1  2  2  0  0  0  0
  1  6  1  0  0  0  0
  1 32  1  0  0  0  0
  2  3  1  0  0  0  0
  2 47  1  0  0  0  0
  3  4  2  0  0  0  0
  3 48  1  0  0  0  0
  4  5  1  0  0  0  0
  4 49  1  0  0  0  0
  5  6  2  0  0  0  0
  5 50  1  0  0  0  0
  6 51  1  0  0  0  0
  7  8  1  0  0  0  0
  7 12  2  0  0  0  0
  7 13  1  0  0  0  0
  8  9  1  0  0  0  0
  8 52  1  0  0  0  0
  8 53  1  0  0  0  0
  9 10  2  0  0  0  0
  9 54  1  0  0  0  0
 10 11  1  0  0  0  0
 10 55  1  0  0  0  0
 11 12  1  0  0  0  0
 11 56  1  0  0  0  0
 11 57  1  0  0  0  0
 12 58  1  0  0  0  0
 13 14  1  0  0  0  0
 13 59  1  0  0  0  0
 13 60  1  0  0  0  0
 14 15  1  0  0  0  0
 15 16  1  0  0  0  0
 15 35  1  0  0  0  0
 15 61  1  6  0  0  0
 16 17  1  0  0  0  0
 16 34  1  0  0  0  0
 16 62  1  1  0  0  0
 17 18  1  0  0  0  0
 17 33  1  0  0  0  0
 17 63  1  1  0  0  0
 18 19  1  0  0  0  0
 18 31  1  0  0  0  0
 18 64  1  6  0  0  0
 19 20  2  0  0  0  0
 19 21  1  0  0  0  0
 21 22  1  0  0  0  0
 21 65  1  0  0  0  0
 22 23  1  0  0  0  0
 22 27  1  0  0  0  0
 22 66  1  1  0  0  0
 23 24  1  0  0  0  0
 23 25  1  0  0  0  0
 23 67  1  6  0  0  0
 24 68  1  0  0  0  0
 24 69  1  0  0  0  0
 24 70  1  0  0  0  0
 25 26  1  0  0  0  0
 25 71  1  0  0  0  0
 25 72  1  0  0  0  0
 26 73  1  0  0  0  0
 26 74  1  0  0  0  0
 26 75  1  0  0  0  0
 27 28  2  0  0  0  0
 27 29  1  0  0  0  0
 29 30  1  0  0  0  0
 29 76  1  0  0  0  0
 30 77  1  0  0  0  0
 30 78  1  0  0  0  0
 30 79  1  0  0  0  0
 31 32  1  0  0  0  0
 32 80  1  0  0  0  0
 32 81  1  0  0  0  0
 33 82  1  0  0  0  0
 34 83  1  0  0  0  0
 35 36  2  0  0  0  0
 35 37  1  0  0  0  0
 37 38  1  0  0  0  0
 37 84  1  0  0  0  0
 38 39  1  0  0  0  0
 38 43  1  0  0  0  0
 38 85  1  1  0  0  0
 39 40  1  0  0  0  0
 39 41  1  0  0  0  0
 39 86  1  6  0  0  0
 40 87  1  0  0  0  0
 40 88  1  0  0  0  0
 40 89  1  0  0  0  0
 41 42  1  0  0  0  0
 41 90  1  0  0  0  0
 41 91  1  0  0  0  0
 42 92  1  0  0  0  0
 42 93  1  0  0  0  0
 42 94  1  0  0  0  0
 43 44  2  0  0  0  0
 43 45  1  0  0  0  0
 45 46  1  0  0  0  0
 45 95  1  0  0  0  0
 46 96  1  0  0  0  0
 46 97  1  0  0  0  0
 46 98  1  0  0  0  0
M  END
$$$$
