BEN
 OpenBabel04041916153D

 18 18  0  0  0  0  0  0  0  0999 V2000
   44.8388  -22.9549   62.4230 C   0  0  0  0  0  0  0  0  0  0  0  0
   44.8465  -21.8312   63.2770 C   0  0  0  0  0  0  0  0  0  0  0  0
   43.6498  -21.2317   63.6942 C   0  0  0  0  0  0  0  0  0  0  0  0
   42.4108  -21.7385   63.2629 C   0  0  0  0  0  0  0  0  0  0  0  0
   42.3771  -22.8358   62.4124 C   0  0  0  0  0  0  0  0  0  0  0  0
   43.5710  -23.4378   62.0014 C   0  0  0  0  0  0  0  0  0  0  0  0
   46.1036  -23.6083   61.9913 C   0  0  0  0  0  0  0  0  0  0  0  0
   46.0839  -24.4436   60.9708 N   0  0  0  0  0  0  0  0  0  0  0  0
   47.2416  -23.3677   62.6198 N   0  0  0  0  0  0  0  0  0  0  0  0
   45.7801  -21.3983   63.6271 H   0  0  0  0  0  0  0  0  0  0  0  0
   43.6743  -20.3617   64.3589 H   0  0  0  0  0  0  0  0  0  0  0  0
   41.4901  -21.2624   63.5985 H   0  0  0  0  0  0  0  0  0  0  0  0
   41.4195  -23.2317   62.0865 H   0  0  0  0  0  0  0  0  0  0  0  0
   43.5091  -24.3124   61.3509 H   0  0  0  0  0  0  0  0  0  0  0  0
   46.9028  -24.9316   60.6350 H   0  0  0  0  0  0  0  0  0  0  0  0
   47.2694  -22.7386   63.4195 H   0  0  0  0  0  0  0  0  0  0  0  0
   48.1078  -23.8100   62.3710 H   0  0  0  0  0  0  0  0  0  0  0  0
   45.2259  -24.6312   60.4550 H   0  0  0  0  0  0  0  0  0  0  0  0
  1  2  2  0  0  0  0
  1  6  1  0  0  0  0
  1  7  1  0  0  0  0
  2  3  1  0  0  0  0
  2 10  1  0  0  0  0
  3  4  2  0  0  0  0
  3 11  1  0  0  0  0
  4  5  1  0  0  0  0
  4 12  1  0  0  0  0
  5  6  2  0  0  0  0
  5 13  1  0  0  0  0
  6 14  1  0  0  0  0
  7  8  2  0  0  0  0
  7  9  1  0  0  0  0
  8 15  1  0  0  0  0
  8 18  1  0  0  0  0
  9 16  1  0  0  0  0
  9 17  1  0  0  0  0
M  END
$$$$
