BEN
 OpenBabel04041917183D

 18 18  0  0  0  0  0  0  0  0999 V2000
   53.2154   67.2700  -28.9000 C   0  0  0  0  0  0  0  0  0  0  0  0
   52.6367   66.9224  -30.1568 C   0  0  0  0  0  0  0  0  0  0  0  0
   52.3839   67.9026  -31.1419 C   0  0  0  0  0  0  0  0  0  0  0  0
   52.6999   69.2499  -30.9032 C   0  0  0  0  0  0  0  0  0  0  0  0
   53.2704   69.6227  -29.6732 C   0  0  0  0  0  0  0  0  0  0  0  0
   53.5257   68.6462  -28.6839 C   0  0  0  0  0  0  0  0  0  0  0  0
   53.4896   66.2211  -27.8481 C   0  0  0  0  0  0  0  0  0  0  0  0
   54.2474   66.4998  -26.7944 N   0  0  0  0  0  0  0  0  0  0  0  0
   52.9933   65.0030  -27.9422 N   0  0  0  0  0  0  0  0  0  0  0  0
   52.3837   65.8842  -30.3853 H   0  0  0  0  0  0  0  0  0  0  0  0
   51.9341   67.6121  -32.1133 H   0  0  0  0  0  0  0  0  0  0  0  0
   52.5034   70.0146  -31.6736 H   0  0  0  0  0  0  0  0  0  0  0  0
   53.5159   70.6846  -29.4872 H   0  0  0  0  0  0  0  0  0  0  0  0
   53.9654   68.9776  -27.7364 H   0  0  0  0  0  0  0  0  0  0  0  0
   54.4596   65.8362  -26.0854 H   0  0  0  0  0  0  0  0  0  0  0  0
   52.4004   64.7583  -28.7252 H   0  0  0  0  0  0  0  0  0  0  0  0
   53.1667   64.2795  -27.2506 H   0  0  0  0  0  0  0  0  0  0  0  0
   54.6597   67.4193  -26.6822 H   0  0  0  0  0  0  0  0  0  0  0  0
  1  2  2  0  0  0  0
  1  6  1  0  0  0  0
  1  7  1  0  0  0  0
  2  3  1  0  0  0  0
  2 10  1  0  0  0  0
  3  4  2  0  0  0  0
  3 11  1  0  0  0  0
  4  5  1  0  0  0  0
  4 12  1  0  0  0  0
  5  6  2  0  0  0  0
  5 13  1  0  0  0  0
  6 14  1  0  0  0  0
  7  8  2  0  0  0  0
  7  9  1  0  0  0  0
  8 15  1  0  0  0  0
  8 18  1  0  0  0  0
  9 16  1  0  0  0  0
  9 17  1  0  0  0  0
M  END
$$$$
