BEN
 OpenBabel04041917193D

 18 18  0  0  0  0  0  0  0  0999 V2000
   53.3585   66.9432  -28.8655 C   0  0  0  0  0  0  0  0  0  0  0  0
   52.7502   66.5864  -30.1145 C   0  0  0  0  0  0  0  0  0  0  0  0
   52.4700   67.5748  -31.1161 C   0  0  0  0  0  0  0  0  0  0  0  0
   52.7969   68.9360  -30.8739 C   0  0  0  0  0  0  0  0  0  0  0  0
   53.3999   69.3152  -29.6453 C   0  0  0  0  0  0  0  0  0  0  0  0
   53.6791   68.3231  -28.6486 C   0  0  0  0  0  0  0  0  0  0  0  0
   53.6539   65.8790  -27.8095 C   0  0  0  0  0  0  0  0  0  0  0  0
   54.3881   66.1841  -26.7389 N   0  0  0  0  0  0  0  0  0  0  0  0
   53.2054   64.6568  -27.9291 N   0  0  0  0  0  0  0  0  0  0  0  0
   52.4886   65.5422  -30.3330 H   0  0  0  0  0  0  0  0  0  0  0  0
   52.0027   67.2850  -32.0723 H   0  0  0  0  0  0  0  0  0  0  0  0
   52.5826   69.7008  -31.6401 H   0  0  0  0  0  0  0  0  0  0  0  0
   53.6511   70.3736  -29.4640 H   0  0  0  0  0  0  0  0  0  0  0  0
   54.1440   68.6495  -27.7089 H   0  0  0  0  0  0  0  0  0  0  0  0
   54.6058   65.4929  -26.0271 H   0  0  0  0  0  0  0  0  0  0  0  0
   52.6394   64.3957  -28.7290 H   0  0  0  0  0  0  0  0  0  0  0  0
   53.3997   63.9276  -27.2321 H   0  0  0  0  0  0  0  0  0  0  0  0
   54.7526   67.1118  -26.6151 H   0  0  0  0  0  0  0  0  0  0  0  0
  1  2  2  0  0  0  0
  1  6  1  0  0  0  0
  1  7  1  0  0  0  0
  2  3  1  0  0  0  0
  2 10  1  0  0  0  0
  3  4  2  0  0  0  0
  3 11  1  0  0  0  0
  4  5  1  0  0  0  0
  4 12  1  0  0  0  0
  5  6  2  0  0  0  0
  5 13  1  0  0  0  0
  6 14  1  0  0  0  0
  7  8  2  0  0  0  0
  7  9  1  0  0  0  0
  8 15  1  0  0  0  0
  8 18  1  0  0  0  0
  9 16  1  0  0  0  0
  9 17  1  0  0  0  0
M  END
$$$$
