BEN
 OpenBabel04041917173D

 18 18  0  0  0  0  0  0  0  0999 V2000
   -3.1722    9.0575   19.6777 C   0  0  0  0  0  0  0  0  0  0  0  0
   -1.8258    8.8157   19.2595 C   0  0  0  0  0  0  0  0  0  0  0  0
   -1.2273    7.5191   19.3935 C   0  0  0  0  0  0  0  0  0  0  0  0
   -1.9776    6.4496   19.9538 C   0  0  0  0  0  0  0  0  0  0  0  0
   -3.3152    6.6661   20.3761 C   0  0  0  0  0  0  0  0  0  0  0  0
   -3.9080    7.9634   20.2377 C   0  0  0  0  0  0  0  0  0  0  0  0
   -3.7997   10.4402   19.5309 C   0  0  0  0  0  0  0  0  0  0  0  0
   -5.1143   10.5890   19.6882 N   0  0  0  0  0  0  0  0  0  0  0  0
   -3.0750   11.4959   19.2511 N   0  0  0  0  0  0  0  0  0  0  0  0
   -1.2216    9.6189   18.8215 H   0  0  0  0  0  0  0  0  0  0  0  0
   -0.1913    7.3478   19.0654 H   0  0  0  0  0  0  0  0  0  0  0  0
   -1.5233    5.4523   20.0613 H   0  0  0  0  0  0  0  0  0  0  0  0
   -3.8920    5.8347   20.8085 H   0  0  0  0  0  0  0  0  0  0  0  0
   -4.9408    8.0970   20.5786 H   0  0  0  0  0  0  0  0  0  0  0  0
   -5.5647   11.4956   19.5949 H   0  0  0  0  0  0  0  0  0  0  0  0
   -2.0728   11.4136   19.1324 H   0  0  0  0  0  0  0  0  0  0  0  0
   -3.4830   12.4335   19.1500 H   0  0  0  0  0  0  0  0  0  0  0  0
   -5.6978    9.7995   19.8970 H   0  0  0  0  0  0  0  0  0  0  0  0
  1  2  2  0  0  0  0
  1  6  1  0  0  0  0
  1  7  1  0  0  0  0
  2  3  1  0  0  0  0
  2 10  1  0  0  0  0
  3  4  2  0  0  0  0
  3 11  1  0  0  0  0
  4  5  1  0  0  0  0
  4 12  1  0  0  0  0
  5  6  2  0  0  0  0
  5 13  1  0  0  0  0
  6 14  1  0  0  0  0
  7  8  2  0  0  0  0
  7  9  1  0  0  0  0
  8 15  1  0  0  0  0
  8 18  1  0  0  0  0
  9 16  1  0  0  0  0
  9 17  1  0  0  0  0
M  END
$$$$
