BEN
 OpenBabel04041915073D

 18 18  0  0  0  0  0  0  0  0999 V2000
    7.6470   49.7427   54.9820 C   0  0  0  0  0  0  0  0  0  0  0  0
    7.6661   48.5466   54.2364 C   0  0  0  0  0  0  0  0  0  0  0  0
    7.7478   47.2953   54.8594 C   0  0  0  0  0  0  0  0  0  0  0  0
    7.7757   47.2258   56.2521 C   0  0  0  0  0  0  0  0  0  0  0  0
    7.8343   48.3998   57.0054 C   0  0  0  0  0  0  0  0  0  0  0  0
    7.7717   49.6447   56.3754 C   0  0  0  0  0  0  0  0  0  0  0  0
    7.4706   51.0500   54.3228 C   0  0  0  0  0  0  0  0  0  0  0  0
    7.0062   52.0891   54.9969 N   0  0  0  0  0  0  0  0  0  0  0  0
    7.7477   51.1971   53.0491 N   0  0  0  0  0  0  0  0  0  0  0  0
    7.5806   48.5753   53.1541 H   0  0  0  0  0  0  0  0  0  0  0  0
    7.7872   46.3856   54.2679 H   0  0  0  0  0  0  0  0  0  0  0  0
    7.7555   46.2576   56.7492 H   0  0  0  0  0  0  0  0  0  0  0  0
    7.9303   48.3393   58.0889 H   0  0  0  0  0  0  0  0  0  0  0  0
    7.8031   50.5421   56.9891 H   0  0  0  0  0  0  0  0  0  0  0  0
    6.8555   52.9837   54.5687 H   0  0  0  0  0  0  0  0  0  0  0  0
    6.7784   51.9854   55.9771 H   0  0  0  0  0  0  0  0  0  0  0  0
    7.6323   52.0775   52.5692 H   0  0  0  0  0  0  0  0  0  0  0  0
    8.1124   50.4151   52.5116 H   0  0  0  0  0  0  0  0  0  0  0  0
  1  7  1  0  0  0  0
  1  6  2  0  0  0  0
  1  2  1  0  0  0  0
  2  3  2  0  0  0  0
  2 10  1  0  0  0  0
  3  4  1  0  0  0  0
  3 11  1  0  0  0  0
  4  5  2  0  0  0  0
  4 12  1  0  0  0  0
  5  6  1  0  0  0  0
  5 13  1  0  0  0  0
  6 14  1  0  0  0  0
  7  9  2  0  0  0  0
  7  8  1  0  0  0  0
  8 15  1  0  0  0  0
  8 16  1  0  0  0  0
  9 17  1  0  0  0  0
  9 18  1  0  0  0  0
M  END
$$$$
