BEN
 OpenBabel04041916473D

 18 18  0  0  0  0  0  0  0  0999 V2000
   -6.9228   31.2132   33.8902 C   0  0  0  0  0  0  0  0  0  0  0  0
   -8.1875   30.8290   34.3502 C   0  0  0  0  0  0  0  0  0  0  0  0
   -8.3318   29.8633   35.3405 C   0  0  0  0  0  0  0  0  0  0  0  0
   -7.2053   29.2562   35.8908 C   0  0  0  0  0  0  0  0  0  0  0  0
   -5.9361   29.6178   35.4448 C   0  0  0  0  0  0  0  0  0  0  0  0
   -5.7984   30.5852   34.4535 C   0  0  0  0  0  0  0  0  0  0  0  0
   -6.7639   32.2443   32.8611 C   0  0  0  0  0  0  0  0  0  0  0  0
   -5.5798   32.6487   32.4878 N   0  0  0  0  0  0  0  0  0  0  0  0
   -7.8261   32.7963   32.2877 N   0  0  0  0  0  0  0  0  0  0  0  0
   -9.0873   31.2800   33.9492 H   0  0  0  0  0  0  0  0  0  0  0  0
   -9.3249   29.5808   35.6885 H   0  0  0  0  0  0  0  0  0  0  0  0
   -7.3162   28.5017   36.6651 H   0  0  0  0  0  0  0  0  0  0  0  0
   -5.0533   29.1441   35.8724 H   0  0  0  0  0  0  0  0  0  0  0  0
   -4.7947   30.8359   34.1338 H   0  0  0  0  0  0  0  0  0  0  0  0
   -5.4475   33.3574   31.7858 H   0  0  0  0  0  0  0  0  0  0  0  0
   -8.7539   32.5095   32.5475 H   0  0  0  0  0  0  0  0  0  0  0  0
   -7.7324   33.5023   31.5860 H   0  0  0  0  0  0  0  0  0  0  0  0
   -4.7447   32.2549   32.9058 H   0  0  0  0  0  0  0  0  0  0  0  0
  1  2  2  0  0  0  0
  1  6  1  0  0  0  0
  1  7  1  0  0  0  0
  2  3  1  0  0  0  0
  2 10  1  0  0  0  0
  3  4  2  0  0  0  0
  3 11  1  0  0  0  0
  4  5  1  0  0  0  0
  4 12  1  0  0  0  0
  5  6  2  0  0  0  0
  5 13  1  0  0  0  0
  6 14  1  0  0  0  0
  7  8  2  0  0  0  0
  7  9  1  0  0  0  0
  8 15  1  0  0  0  0
  8 18  1  0  0  0  0
  9 16  1  0  0  0  0
  9 17  1  0  0  0  0
M  END
$$$$
