BEN
 OpenBabel04041914053D

 18 18  0  0  0  0  0  0  0  0999 V2000
   29.1381   14.9238   16.6438 C   0  0  0  0  0  0  0  0  0  0  0  0
   28.7189   15.5873   17.8112 C   0  0  0  0  0  0  0  0  0  0  0  0
   28.3609   14.8734   18.9569 C   0  0  0  0  0  0  0  0  0  0  0  0
   28.4335   13.4847   18.9655 C   0  0  0  0  0  0  0  0  0  0  0  0
   28.8559   12.8066   17.8276 C   0  0  0  0  0  0  0  0  0  0  0  0
   29.1961   13.5184   16.6759 C   0  0  0  0  0  0  0  0  0  0  0  0
   29.4996   15.6749   15.4215 C   0  0  0  0  0  0  0  0  0  0  0  0
   30.2398   15.1155   14.4879 N   0  0  0  0  0  0  0  0  0  0  0  0
   29.0842   16.9168   15.2581 N   0  0  0  0  0  0  0  0  0  0  0  0
   28.6696   16.6706   17.8752 H   0  0  0  0  0  0  0  0  0  0  0  0
   28.0300   15.4012   19.8503 H   0  0  0  0  0  0  0  0  0  0  0  0
   28.1612   12.9293   19.8601 H   0  0  0  0  0  0  0  0  0  0  0  0
   28.9137   11.7196   17.8356 H   0  0  0  0  0  0  0  0  0  0  0  0
   29.4909   12.9325   15.8088 H   0  0  0  0  0  0  0  0  0  0  0  0
   30.4988   15.5899   13.6370 H   0  0  0  0  0  0  0  0  0  0  0  0
   28.4881   17.3628   15.9406 H   0  0  0  0  0  0  0  0  0  0  0  0
   29.3262   17.4652   14.4468 H   0  0  0  0  0  0  0  0  0  0  0  0
   30.5956   14.1697   14.6001 H   0  0  0  0  0  0  0  0  0  0  0  0
  1  2  2  0  0  0  0
  1  6  1  0  0  0  0
  1  7  1  0  0  0  0
  2  3  1  0  0  0  0
  2 10  1  0  0  0  0
  3  4  2  0  0  0  0
  3 11  1  0  0  0  0
  4  5  1  0  0  0  0
  4 12  1  0  0  0  0
  5  6  2  0  0  0  0
  5 13  1  0  0  0  0
  6 14  1  0  0  0  0
  7  8  2  0  0  0  0
  7  9  1  0  0  0  0
  8 15  1  0  0  0  0
  8 18  1  0  0  0  0
  9 16  1  0  0  0  0
  9 17  1  0  0  0  0
M  END
$$$$
