BEN
 OpenBabel04041915073D

 18 18  0  0  0  0  0  0  0  0999 V2000
    7.7202   50.4194   55.5299 C   0  0  0  0  0  0  0  0  0  0  0  0
    7.7056   49.2634   54.7263 C   0  0  0  0  0  0  0  0  0  0  0  0
    7.8558   47.9894   55.2839 C   0  0  0  0  0  0  0  0  0  0  0  0
    8.0061   47.8430   56.6582 C   0  0  0  0  0  0  0  0  0  0  0  0
    8.0101   48.9659   57.4754 C   0  0  0  0  0  0  0  0  0  0  0  0
    7.8802   50.2422   56.9179 C   0  0  0  0  0  0  0  0  0  0  0  0
    7.5742   51.7706   54.9391 C   0  0  0  0  0  0  0  0  0  0  0  0
    7.2118   52.7970   55.6830 N   0  0  0  0  0  0  0  0  0  0  0  0
    7.8096   51.9691   53.6565 N   0  0  0  0  0  0  0  0  0  0  0  0
    7.5670   49.3109   53.6497 H   0  0  0  0  0  0  0  0  0  0  0  0
    7.8505   47.1074   54.6457 H   0  0  0  0  0  0  0  0  0  0  0  0
    8.1177   46.8496   57.0928 H   0  0  0  0  0  0  0  0  0  0  0  0
    8.1301   48.8492   58.5517 H   0  0  0  0  0  0  0  0  0  0  0  0
    7.9207   51.0824   57.6042 H   0  0  0  0  0  0  0  0  0  0  0  0
    7.1131   53.7302   55.3082 H   0  0  0  0  0  0  0  0  0  0  0  0
    6.9984   52.6835   56.6655 H   0  0  0  0  0  0  0  0  0  0  0  0
    7.7133   52.8769   53.2200 H   0  0  0  0  0  0  0  0  0  0  0  0
    8.1125   51.2126   53.0566 H   0  0  0  0  0  0  0  0  0  0  0  0
  1  7  1  0  0  0  0
  1  6  2  0  0  0  0
  1  2  1  0  0  0  0
  2  3  2  0  0  0  0
  2 10  1  0  0  0  0
  3  4  1  0  0  0  0
  3 11  1  0  0  0  0
  4  5  2  0  0  0  0
  4 12  1  0  0  0  0
  5  6  1  0  0  0  0
  5 13  1  0  0  0  0
  6 14  1  0  0  0  0
  7  9  2  0  0  0  0
  7  8  1  0  0  0  0
  8 15  1  0  0  0  0
  8 16  1  0  0  0  0
  9 17  1  0  0  0  0
  9 18  1  0  0  0  0
M  END
$$$$
