BEN
 OpenBabel04041917193D

 18 18  0  0  0  0  0  0  0  0999 V2000
   53.2706   67.1061  -28.8502 C   0  0  0  0  0  0  0  0  0  0  0  0
   52.6782   66.7111  -30.0930 C   0  0  0  0  0  0  0  0  0  0  0  0
   52.4178   67.6657  -31.1303 C   0  0  0  0  0  0  0  0  0  0  0  0
   52.7503   69.0337  -30.9306 C   0  0  0  0  0  0  0  0  0  0  0  0
   53.3387   69.4506  -29.7065 C   0  0  0  0  0  0  0  0  0  0  0  0
   53.5977   68.4904  -28.6740 C   0  0  0  0  0  0  0  0  0  0  0  0
   53.5409   66.0769  -27.7564 C   0  0  0  0  0  0  0  0  0  0  0  0
   54.1868   66.4360  -26.6482 N   0  0  0  0  0  0  0  0  0  0  0  0
   53.1527   64.8351  -27.8787 N   0  0  0  0  0  0  0  0  0  0  0  0
   52.4120   65.6622  -30.2796 H   0  0  0  0  0  0  0  0  0  0  0  0
   51.9611   67.3439  -32.0806 H   0  0  0  0  0  0  0  0  0  0  0  0
   52.5522   69.7729  -31.7256 H   0  0  0  0  0  0  0  0  0  0  0  0
   53.5935   70.5130  -29.5562 H   0  0  0  0  0  0  0  0  0  0  0  0
   54.0533   68.8441  -27.7402 H   0  0  0  0  0  0  0  0  0  0  0  0
   54.3830   65.7706  -25.9059 H   0  0  0  0  0  0  0  0  0  0  0  0
   52.6561   64.5325  -28.7089 H   0  0  0  0  0  0  0  0  0  0  0  0
   53.3281   64.1287  -27.1535 H   0  0  0  0  0  0  0  0  0  0  0  0
   54.5014   67.3809  -26.5215 H   0  0  0  0  0  0  0  0  0  0  0  0
  1  2  2  0  0  0  0
  1  6  1  0  0  0  0
  1  7  1  0  0  0  0
  2  3  1  0  0  0  0
  2 10  1  0  0  0  0
  3  4  2  0  0  0  0
  3 11  1  0  0  0  0
  4  5  1  0  0  0  0
  4 12  1  0  0  0  0
  5  6  2  0  0  0  0
  5 13  1  0  0  0  0
  6 14  1  0  0  0  0
  7  8  2  0  0  0  0
  7  9  1  0  0  0  0
  8 15  1  0  0  0  0
  8 18  1  0  0  0  0
  9 16  1  0  0  0  0
  9 17  1  0  0  0  0
M  END
$$$$
