BET
 OpenBabel04041916423D

 19 18  0  0  0  0  0  0  0  0999 V2000
   26.7141   22.9518   72.6565 N   0  3  0  0  0  0  0  0  0  0  0  0
   25.1489   22.9513   72.3938 C   0  0  0  0  0  0  0  0  0  0  0  0
   24.1410   22.7997   73.5700 C   0  0  0  0  0  0  0  0  0  0  0  0
   22.9847   23.2237   73.3156 O   0  0  0  0  0  0  0  0  0  0  0  0
   24.6167   22.2976   74.6252 O   0  0  0  0  0  0  0  0  0  0  0  0
   27.4109   23.3733   71.3891 C   0  0  0  0  0  0  0  0  0  0  0  0
   27.0246   23.9338   73.7734 C   0  0  0  0  0  0  0  0  0  0  0  0
   27.1256   21.5519   73.0660 C   0  0  0  0  0  0  0  0  0  0  0  0
   24.9719   22.1349   71.6832 H   0  0  0  0  0  0  0  0  0  0  0  0
   24.9401   23.8967   71.8801 H   0  0  0  0  0  0  0  0  0  0  0  0
   28.4894   23.3854   71.5715 H   0  0  0  0  0  0  0  0  0  0  0  0
   27.0679   24.3706   71.1129 H   0  0  0  0  0  0  0  0  0  0  0  0
   27.1676   22.6559   70.6000 H   0  0  0  0  0  0  0  0  0  0  0  0
   26.5584   23.6179   74.7062 H   0  0  0  0  0  0  0  0  0  0  0  0
   26.6647   24.9232   73.4742 H   0  0  0  0  0  0  0  0  0  0  0  0
   28.1106   23.9567   73.9084 H   0  0  0  0  0  0  0  0  0  0  0  0
   26.8559   20.8633   72.2586 H   0  0  0  0  0  0  0  0  0  0  0  0
   26.6301   21.2628   73.9928 H   0  0  0  0  0  0  0  0  0  0  0  0
   28.2100   21.5436   73.2120 H   0  0  0  0  0  0  0  0  0  0  0  0
  1  2  1  0  0  0  0
  1  6  1  0  0  0  0
  1  7  1  0  0  0  0
  1  8  1  0  0  0  0
  2  3  1  0  0  0  0
  2  9  1  0  0  0  0
  2 10  1  0  0  0  0
  3  4  2  0  0  0  0
  3  5  1  0  0  0  0
  6 11  1  0  0  0  0
  6 12  1  0  0  0  0
  6 13  1  0  0  0  0
  7 14  1  0  0  0  0
  7 15  1  0  0  0  0
  7 16  1  0  0  0  0
  8 17  1  0  0  0  0
  8 18  1  0  0  0  0
  8 19  1  0  0  0  0
M  CHG  1   1   1
M  END
$$$$
