BEZ
 OpenBabel04041914523D

 14 14  0  0  0  0  0  0  0  0999 V2000
   11.2629    4.5172   23.3218 C   0  0  0  0  0  0  0  0  0  0  0  0
   10.9774    4.2779   22.1058 O   0  0  0  0  0  0  0  0  0  0  0  0
   10.8995    5.5406   23.9854 O   0  0  0  0  0  0  0  0  0  0  0  0
   12.1082    3.4890   24.0435 C   0  0  0  0  0  0  0  0  0  0  0  0
   12.7572    3.7850   25.2529 C   0  0  0  0  0  0  0  0  0  0  0  0
   13.5337    2.8209   25.9021 C   0  0  0  0  0  0  0  0  0  0  0  0
   13.6671    1.5474   25.3533 C   0  0  0  0  0  0  0  0  0  0  0  0
   13.0329    1.2389   24.1525 C   0  0  0  0  0  0  0  0  0  0  0  0
   12.2611    2.2021   23.5012 C   0  0  0  0  0  0  0  0  0  0  0  0
   12.6550    4.7821   25.6793 H   0  0  0  0  0  0  0  0  0  0  0  0
   14.0347    3.0682   26.8369 H   0  0  0  0  0  0  0  0  0  0  0  0
   14.2666    0.7948   25.8559 H   0  0  0  0  0  0  0  0  0  0  0  0
   13.1336    0.2542   23.7147 H   0  0  0  0  0  0  0  0  0  0  0  0
   11.7650    1.9641   22.5602 H   0  0  0  0  0  0  0  0  0  0  0  0
  1  4  1  0  0  0  0
  1  3  2  0  0  0  0
  1  2  1  0  0  0  0
  4  9  2  0  0  0  0
  4  5  1  0  0  0  0
  5  6  2  0  0  0  0
  5 10  1  0  0  0  0
  6  7  1  0  0  0  0
  6 11  1  0  0  0  0
  7  8  2  0  0  0  0
  7 12  1  0  0  0  0
  8  9  1  0  0  0  0
  8 13  1  0  0  0  0
  9 14  1  0  0  0  0
M  END
$$$$
