BHI
 OpenBabel04041916313D

 26 25  0  0  1  0  0  0  0  0999 V2000
    9.4534   10.0626   13.1566 O   0  0  0  0  0  0  0  0  0  0  0  0
   11.9240    2.7324   10.7495 O   0  0  0  0  0  0  0  0  0  0  0  0
    9.6223    1.6734   10.7625 O   0  0  0  0  0  0  0  0  0  0  0  0
   10.9103    1.7814   12.9355 O   0  0  0  0  0  0  0  0  0  0  0  0
   10.6758    2.4380   11.5698 P   0  0  0  0  0  0  0  0  0  0  0  0
    9.9998    3.8523   11.9146 O   0  0  0  0  0  0  0  0  0  0  0  0
   10.9462    6.1567   11.3519 O   0  0  0  0  0  0  0  0  0  0  0  0
   11.8595    4.9355   13.4948 O   0  0  0  0  0  0  0  0  0  0  0  0
   10.7895    5.1348   12.4574 P   0  0  2  0  0  0  0  0  0  0  0  0
   10.2765    9.4683   15.3639 C   0  0  0  0  0  0  0  0  0  0  0  0
   11.1468    8.3779   13.3554 C   0  0  0  0  0  0  0  0  0  0  0  0
    8.7770    6.8376   12.9440 C   0  0  0  0  0  0  0  0  0  0  0  0
    8.7514    7.8709   14.0650 C   0  0  0  0  0  0  0  0  0  0  0  0
    9.8729    8.9422   13.9783 C   0  0  2  0  0  0  0  0  0  0  0  0
    9.5765    5.7454   13.3844 O   0  0  0  0  0  0  0  0  0  0  0  0
    8.7681    9.7113   16.5941 Br  0  0  0  0  0  0  0  0  0  0  0  0
    8.6475   10.4438   13.5392 H   0  0  0  0  0  0  0  0  0  0  0  0
   10.9611    8.7724   15.8580 H   0  0  0  0  0  0  0  0  0  0  0  0
   10.7434   10.4574   15.3108 H   0  0  0  0  0  0  0  0  0  0  0  0
   11.4832    7.5113   13.9318 H   0  0  0  0  0  0  0  0  0  0  0  0
   11.9661    9.0993   13.2990 H   0  0  0  0  0  0  0  0  0  0  0  0
   10.9797    8.0998   12.3198 H   0  0  0  0  0  0  0  0  0  0  0  0
    9.1328    7.2760   12.0123 H   0  0  0  0  0  0  0  0  0  0  0  0
    7.7717    6.4535   12.7614 H   0  0  0  0  0  0  0  0  0  0  0  0
    8.8624    7.3310   15.0140 H   0  0  0  0  0  0  0  0  0  0  0  0
    7.7735    8.3578   14.0649 H   0  0  0  0  0  0  0  0  0  0  0  0
  1 17  1  0  0  0  0
  2  5  2  0  0  0  0
  3  5  1  0  0  0  0
  4  5  1  0  0  0  0
  5  6  1  0  0  0  0
  7  9  1  0  0  0  0
  8  9  2  0  0  0  0
  9  6  1  6  0  0  0
  9 15  1  0  0  0  0
 10 16  1  0  0  0  0
 10 14  1  0  0  0  0
 10 18  1  0  0  0  0
 10 19  1  0  0  0  0
 11 14  1  0  0  0  0
 11 20  1  0  0  0  0
 11 21  1  0  0  0  0
 11 22  1  0  0  0  0
 12 13  1  0  0  0  0
 12 15  1  0  0  0  0
 12 23  1  0  0  0  0
 12 24  1  0  0  0  0
 13 14  1  0  0  0  0
 13 25  1  0  0  0  0
 13 26  1  0  0  0  0
 14  1  1  6  0  0  0
M  END
$$$$
