BI1
 OpenBabel04041917433D

 58 62  0  0  1  0  0  0  0  0999 V2000
  -14.8985  -36.4705    5.8894 C   0  0  0  0  0  0  0  0  0  0  0  0
  -15.8423  -36.6285    4.7297 N   0  3  0  0  0  0  0  0  0  0  0  0
  -17.2519  -36.9600    5.0213 C   0  0  0  0  0  0  0  0  0  0  0  0
  -15.4020  -35.8955    3.5026 C   0  0  0  0  0  0  0  0  0  0  0  0
  -16.4103  -36.0389    2.3891 C   0  0  0  0  0  0  0  0  0  0  0  0
  -15.6435  -36.0127    1.0886 C   0  0  0  0  0  0  0  0  0  0  0  0
  -16.4840  -36.1833   -0.0658 N   0  3  2  0  0  0  0  0  0  0  0  0
  -17.3802  -37.2109   -0.2340 C   0  0  0  0  0  0  0  0  0  0  0  0
  -16.4438  -35.3778   -1.1735 C   0  0  1  0  0  0  0  0  0  0  0  0
  -15.6530  -34.2620   -1.4883 C   0  0  0  0  0  0  0  0  0  0  0  0
  -15.8472  -33.6502   -2.7276 C   0  0  0  0  0  0  0  0  0  0  0  0
  -16.8132  -34.1111   -3.6115 C   0  0  0  0  0  0  0  0  0  0  0  0
  -17.6122  -35.2017   -3.2710 C   0  0  0  0  0  0  0  0  0  0  0  0
  -17.3990  -35.8798   -2.0503 C   0  0  2  0  0  0  0  0  0  0  0  0
  -18.0005  -37.0442   -1.4496 C   0  0  2  0  0  0  0  0  0  0  0  0
  -19.1902  -37.7100   -2.0210 C   0  0  1  0  0  0  0  0  0  0  0  0
  -19.0732  -38.3462   -3.3874 C   0  0  0  0  0  0  0  0  0  0  0  0
  -18.3454  -38.0170   -4.3062 O   0  0  0  0  0  0  0  0  0  0  0  0
  -19.9759  -39.3304   -3.4842 N   0  0  0  0  0  0  0  0  0  0  0  0
  -20.6239  -39.5875   -2.3286 C   0  0  0  0  0  0  0  0  0  0  0  0
  -21.4958  -40.4355   -2.2149 O   0  0  0  0  0  0  0  0  0  0  0  0
  -20.2392  -38.5541   -1.3091 C   0  0  1  0  0  0  0  0  0  0  0  0
  -20.4026  -38.8012    0.1436 C   0  0  1  0  0  0  0  0  0  0  0  0
  -20.3918  -37.7776    1.1499 C   0  0  1  0  0  0  0  0  0  0  0  0
  -20.0536  -36.4046    1.1429 C   0  0  0  0  0  0  0  0  0  0  0  0
  -20.0948  -35.6602    2.3167 C   0  0  0  0  0  0  0  0  0  0  0  0
  -20.5617  -36.2491    3.4840 C   0  0  0  0  0  0  0  0  0  0  0  0
  -20.9851  -37.5861    3.5066 C   0  0  0  0  0  0  0  0  0  0  0  0
  -20.8821  -38.3343    2.3284 C   0  0  1  0  0  0  0  0  0  0  0  0
  -21.2285  -39.6383    2.0474 N   0  3  0  0  0  0  0  0  0  0  0  0
  -20.9391  -39.9285    0.7387 C   0  0  0  0  0  0  0  0  0  0  0  0
  -15.3616  -36.9210    6.7673 H   0  0  0  0  0  0  0  0  0  0  0  0
  -14.6506  -35.4208    6.0454 H   0  0  0  0  0  0  0  0  0  0  0  0
  -13.9921  -37.0356    5.6269 H   0  0  0  0  0  0  0  0  0  0  0  0
  -17.8608  -36.8993    4.1213 H   0  0  0  0  0  0  0  0  0  0  0  0
  -17.6568  -36.3082    5.7887 H   0  0  0  0  0  0  0  0  0  0  0  0
  -17.2524  -38.0111    5.3352 H   0  0  0  0  0  0  0  0  0  0  0  0
  -14.4633  -36.3842    3.2046 H   0  0  0  0  0  0  0  0  0  0  0  0
  -15.1725  -34.8456    3.7195 H   0  0  0  0  0  0  0  0  0  0  0  0
  -17.1559  -35.2342    2.4408 H   0  0  0  0  0  0  0  0  0  0  0  0
  -16.9412  -36.9925    2.4370 H   0  0  0  0  0  0  0  0  0  0  0  0
  -14.9199  -36.8345    1.0595 H   0  0  0  0  0  0  0  0  0  0  0  0
  -15.0998  -35.0689    1.0241 H   0  0  0  0  0  0  0  0  0  0  0  0
  -17.5986  -37.9094    0.5672 H   0  0  0  0  0  0  0  0  0  0  0  0
  -14.8923  -33.8860   -0.8160 H   0  0  0  0  0  0  0  0  0  0  0  0
  -15.2294  -32.8004   -3.0062 H   0  0  0  0  0  0  0  0  0  0  0  0
  -16.9421  -33.6362   -4.5806 H   0  0  0  0  0  0  0  0  0  0  0  0
  -18.3639  -35.5504   -3.9742 H   0  0  0  0  0  0  0  0  0  0  0  0
  -19.7759  -36.8165   -2.2487 H   0  0  0  0  0  0  0  0  0  0  0  0
  -20.2228  -39.7791   -4.3684 H   0  0  0  0  0  0  0  0  0  0  0  0
  -21.1026  -37.8852   -1.4017 H   0  0  0  0  0  0  0  0  0  0  0  0
  -19.7111  -35.9182    0.2342 H   0  0  0  0  0  0  0  0  0  0  0  0
  -19.7716  -34.6218    2.3005 H   0  0  0  0  0  0  0  0  0  0  0  0
  -20.6166  -35.6515    4.3878 H   0  0  0  0  0  0  0  0  0  0  0  0
  -21.3852  -38.0223    4.4133 H   0  0  0  0  0  0  0  0  0  0  0  0
  -21.6609  -40.2820    2.6988 H   0  0  0  0  0  0  0  0  0  0  0  0
  -21.2327  -40.8791    0.3015 H   0  0  0  0  0  0  0  0  0  0  0  0
  -15.5378  -37.5971    4.4159 H   0  0  0  0  0  0  0  0  0  0  0  0
  1  2  1  0  0  0  0
  1 32  1  0  0  0  0
  1 33  1  0  0  0  0
  1 34  1  0  0  0  0
  2  3  1  0  0  0  0
  2  4  1  0  0  0  0
  2 58  1  0  0  0  0
  3 35  1  0  0  0  0
  3 36  1  0  0  0  0
  3 37  1  0  0  0  0
  4  5  1  0  0  0  0
  4 38  1  0  0  0  0
  4 39  1  0  0  0  0
  5  6  1  0  0  0  0
  5 40  1  0  0  0  0
  5 41  1  0  0  0  0
  6 42  1  0  0  0  0
  6 43  1  0  0  0  0
  7  6  1  6  0  0  0
  7  8  1  0  0  0  0
  7  9  1  0  0  0  0
  8 44  1  0  0  0  0
  9 10  1  6  0  0  0
  9 14  1  0  0  0  0
 10 11  1  0  0  0  0
 10 45  1  0  0  0  0
 11 12  1  0  0  0  0
 11 46  1  0  0  0  0
 12 13  1  0  0  0  0
 12 47  1  0  0  0  0
 13 48  1  0  0  0  0
 14 13  1  1  0  0  0
 14 15  1  0  0  0  0
 15  8  1  1  0  0  0
 15 16  1  0  0  0  0
 16 17  1  0  0  0  0
 16 22  1  0  0  0  0
 16 49  1  6  0  0  0
 17 18  2  0  0  0  0
 17 19  1  0  0  0  0
 19 20  1  0  0  0  0
 19 50  1  0  0  0  0
 20 21  2  0  0  0  0
 20 22  1  0  0  0  0
 22 23  1  0  0  0  0
 22 51  1  6  0  0  0
 23 24  1  0  0  0  0
 23 31  1  6  0  0  0
 24 25  1  6  0  0  0
 24 29  1  0  0  0  0
 25 26  1  0  0  0  0
 25 52  1  0  0  0  0
 26 27  1  0  0  0  0
 26 53  1  0  0  0  0
 27 28  1  0  0  0  0
 27 54  1  0  0  0  0
 28 55  1  0  0  0  0
 29 28  1  6  0  0  0
 29 30  1  0  0  0  0
 30 31  1  0  0  0  0
 30 56  1  0  0  0  0
 31 57  1  0  0  0  0
M  CHG  3   2   1   7   1  30   1
M  END
$$$$
