BIR
 OpenBabel04041916413D

 55 56  0  0  1  0  0  0  0  0999 V2000
   27.8251   41.2913   29.9779 C   0  0  0  0  0  0  0  0  0  0  0  0
   27.7340   42.3023   31.1182 C   0  0  2  0  0  0  0  0  0  0  0  0
   26.3662   42.9437   31.0075 N   0  3  0  0  0  0  0  0  0  0  0  0
   29.1288   43.5362   30.9080 P   0  0  1  0  0  0  0  0  0  0  0  0
   30.4396   42.8073   30.9520 O   0  0  0  0  0  0  0  0  0  0  0  0
   28.6538   44.3540   29.7208 O   0  0  0  0  0  0  0  0  0  0  0  0
   28.8804   44.5874   32.3674 C   0  0  0  0  0  0  0  0  0  0  0  0
   30.1444   44.7628   33.1948 C   0  0  2  0  0  0  0  0  0  0  0  0
   30.4579   43.5767   34.0995 C   0  0  0  0  0  0  0  0  0  0  0  0
   31.6239   43.2499   34.3423 O   0  0  0  0  0  0  0  0  0  0  0  0
   29.3911   43.0268   34.7570 N   0  0  0  0  0  0  0  0  0  0  0  0
   29.5289   41.8827   35.6791 C   0  0  1  0  0  0  0  0  0  0  0  0
   29.4472   42.4237   37.0963 C   0  0  0  0  0  0  0  0  0  0  0  0
   28.4078   40.8122   35.4625 C   0  0  0  0  0  0  0  0  0  0  0  0
   27.5181   41.1683   34.6109 O   0  0  0  0  0  0  0  0  0  0  0  0
   28.4914   39.7538   36.1378 O   0  0  0  0  0  0  0  0  0  0  0  0
   30.0442   46.0547   34.0194 C   0  0  0  0  0  0  0  0  0  0  0  0
   31.3195   46.3905   34.7498 C   0  0  0  0  0  0  0  0  0  0  0  0
   31.3132   46.5270   36.1406 C   0  0  0  0  0  0  0  0  0  0  0  0
   32.5044   46.7614   36.8242 C   0  0  0  0  0  0  0  0  0  0  0  0
   33.7268   46.8645   36.1399 C   0  0  0  0  0  0  0  0  0  0  0  0
   33.7169   46.7358   34.7447 C   0  0  0  0  0  0  0  0  0  0  0  0
   32.5278   46.5099   34.0561 C   0  0  0  0  0  0  0  0  0  0  0  0
   34.9782   47.0957   36.8738 C   0  0  0  0  0  0  0  0  0  0  0  0
   36.1416   46.3513   36.5686 C   0  0  0  0  0  0  0  0  0  0  0  0
   37.3385   46.5825   37.2527 C   0  0  0  0  0  0  0  0  0  0  0  0
   37.3928   47.5537   38.2478 C   0  0  0  0  0  0  0  0  0  0  0  0
   36.2569   48.2953   38.5615 C   0  0  0  0  0  0  0  0  0  0  0  0
   35.0634   48.0682   37.8738 C   0  0  0  0  0  0  0  0  0  0  0  0
   27.0079   40.5658   30.0080 H   0  0  0  0  0  0  0  0  0  0  0  0
   28.7758   40.7536   30.0274 H   0  0  0  0  0  0  0  0  0  0  0  0
   27.7960   41.8020   29.0072 H   0  0  0  0  0  0  0  0  0  0  0  0
   27.7850   41.8206   32.0954 H   0  0  0  0  0  0  0  0  0  0  0  0
   26.2574   43.6148   31.7699 H   0  0  0  0  0  0  0  0  0  0  0  0
   26.3990   43.4837   30.1276 H   0  0  0  0  0  0  0  0  0  0  0  0
   28.0306   44.2345   32.9543 H   0  0  0  0  0  0  0  0  0  0  0  0
   28.5608   45.5610   31.9745 H   0  0  0  0  0  0  0  0  0  0  0  0
   30.9813   44.8405   32.4901 H   0  0  0  0  0  0  0  0  0  0  0  0
   28.4358   43.1134   34.4431 H   0  0  0  0  0  0  0  0  0  0  0  0
   30.5022   41.4073   35.5119 H   0  0  0  0  0  0  0  0  0  0  0  0
   29.6064   41.6373   37.8397 H   0  0  0  0  0  0  0  0  0  0  0  0
   28.4676   42.8785   37.2866 H   0  0  0  0  0  0  0  0  0  0  0  0
   30.2011   43.2038   37.2556 H   0  0  0  0  0  0  0  0  0  0  0  0
   29.2085   45.9822   34.7289 H   0  0  0  0  0  0  0  0  0  0  0  0
   29.8156   46.9036   33.3614 H   0  0  0  0  0  0  0  0  0  0  0  0
   30.3903   46.4092   36.7025 H   0  0  0  0  0  0  0  0  0  0  0  0
   32.4746   46.8256   37.9089 H   0  0  0  0  0  0  0  0  0  0  0  0
   34.6407   46.7932   34.1747 H   0  0  0  0  0  0  0  0  0  0  0  0
   32.5644   46.3769   32.9777 H   0  0  0  0  0  0  0  0  0  0  0  0
   36.1103   45.5739   35.8077 H   0  0  0  0  0  0  0  0  0  0  0  0
   38.2184   45.9988   37.0041 H   0  0  0  0  0  0  0  0  0  0  0  0
   38.3208   47.7301   38.7804 H   0  0  0  0  0  0  0  0  0  0  0  0
   36.2945   49.0534   39.3383 H   0  0  0  0  0  0  0  0  0  0  0  0
   34.1910   48.6675   38.1217 H   0  0  0  0  0  0  0  0  0  0  0  0
   25.6175   42.2533   31.0343 H   0  0  0  0  0  0  0  0  0  0  0  0
  1  2  1  0  0  0  0
  1 30  1  0  0  0  0
  1 31  1  0  0  0  0
  1 32  1  0  0  0  0
  2  3  1  0  0  0  0
  2  4  1  0  0  0  0
  2 33  1  1  0  0  0
  3 34  1  0  0  0  0
  3 35  1  0  0  0  0
  3 55  1  0  0  0  0
  4  5  2  6  0  0  0
  4  6  1  0  0  0  0
  4  7  1  0  0  0  0
  7  8  1  0  0  0  0
  7 36  1  0  0  0  0
  7 37  1  0  0  0  0
  8  9  1  0  0  0  0
  8 17  1  0  0  0  0
  8 38  1  6  0  0  0
  9 10  2  0  0  0  0
  9 11  1  0  0  0  0
 11 12  1  0  0  0  0
 11 39  1  0  0  0  0
 12 13  1  0  0  0  0
 12 14  1  0  0  0  0
 12 40  1  6  0  0  0
 13 41  1  0  0  0  0
 13 42  1  0  0  0  0
 13 43  1  0  0  0  0
 14 15  2  0  0  0  0
 14 16  1  0  0  0  0
 17 18  1  0  0  0  0
 17 44  1  0  0  0  0
 17 45  1  0  0  0  0
 18 19  2  0  0  0  0
 18 23  1  0  0  0  0
 19 20  1  0  0  0  0
 19 46  1  0  0  0  0
 20 21  2  0  0  0  0
 20 47  1  0  0  0  0
 21 22  1  0  0  0  0
 21 24  1  0  0  0  0
 22 23  2  0  0  0  0
 22 48  1  0  0  0  0
 23 49  1  0  0  0  0
 24 25  2  0  0  0  0
 24 29  1  0  0  0  0
 25 26  1  0  0  0  0
 25 50  1  0  0  0  0
 26 27  2  0  0  0  0
 26 51  1  0  0  0  0
 27 28  1  0  0  0  0
 27 52  1  0  0  0  0
 28 29  2  0  0  0  0
 28 53  1  0  0  0  0
 29 54  1  0  0  0  0
M  CHG  1   3   1
M  END
$$$$
