BMP
 OpenBabel04041917343D

 32 33  0  0  1  0  0  0  0  0999 V2000
   24.6002  -15.9613    8.6924 P   0  0  0  0  0  0  0  0  0  0  0  0
   25.9113  -15.2281    8.9198 O   0  0  0  0  0  0  0  0  0  0  0  0
   23.3881  -15.0422    8.5955 O   0  0  0  0  0  0  0  0  0  0  0  0
   24.6712  -17.0199    7.5970 O   0  0  0  0  0  0  0  0  0  0  0  0
   24.2926  -16.7914   10.0705 O   0  0  0  0  0  0  0  0  0  0  0  0
   25.3205  -17.3793   10.8405 C   0  0  0  0  0  0  0  0  0  0  0  0
   24.5917  -18.1250   11.9631 C   0  0  1  0  0  0  0  0  0  0  0  0
   25.4925  -19.0202   12.6406 O   0  0  0  0  0  0  0  0  0  0  0  0
   24.0128  -17.2008   13.0233 C   0  0  1  0  0  0  0  0  0  0  0  0
   22.8530  -17.8018   13.6561 O   0  0  0  0  0  0  0  0  0  0  0  0
   25.1381  -17.1059   14.0426 C   0  0  1  0  0  0  0  0  0  0  0  0
   24.6231  -16.7359   15.3334 O   0  0  0  0  0  0  0  0  0  0  0  0
   25.7555  -18.5125   13.9686 C   0  0  2  0  0  0  0  0  0  0  0  0
   27.2019  -18.6367   14.2671 N   0  3  0  0  0  0  0  0  0  0  0  0
   28.0906  -17.8448   13.5322 C   0  0  0  0  0  0  0  0  0  0  0  0
   27.7869  -17.0063   12.6731 O   0  0  0  0  0  0  0  0  0  0  0  0
   29.4159  -17.9868   13.8541 N   0  3  0  0  0  0  0  0  0  0  0  0
   29.9463  -18.8493   14.7564 C   0  0  0  0  0  0  0  0  0  0  0  0
   31.1605  -18.9123   14.9549 O   0  0  0  0  0  0  0  0  0  0  0  0
   28.9669  -19.6825   15.4668 C   0  0  0  0  0  0  0  0  0  0  0  0
   27.6779  -19.5913   15.1999 C   0  0  0  0  0  0  0  0  0  0  0  0
   26.7676  -20.2985   15.7311 O   0  0  0  0  0  0  0  0  0  0  0  0
   25.9859  -16.6188   11.2581 H   0  0  0  0  0  0  0  0  0  0  0  0
   25.9171  -18.0905   10.2620 H   0  0  0  0  0  0  0  0  0  0  0  0
   23.7725  -18.6990   11.5054 H   0  0  0  0  0  0  0  0  0  0  0  0
   23.7301  -16.2253   12.6168 H   0  0  0  0  0  0  0  0  0  0  0  0
   22.1849  -17.9404   12.9668 H   0  0  0  0  0  0  0  0  0  0  0  0
   25.8603  -16.3460   13.7476 H   0  0  0  0  0  0  0  0  0  0  0  0
   25.3857  -16.7332   15.9295 H   0  0  0  0  0  0  0  0  0  0  0  0
   25.2028  -19.1194   14.6871 H   0  0  0  0  0  0  0  0  0  0  0  0
   30.0638  -17.4084   13.3389 H   0  0  0  0  0  0  0  0  0  0  0  0
   29.3257  -20.3992   16.2152 H   0  0  0  0  0  0  0  0  0  0  0  0
  1  2  2  0  0  0  0
  1  3  1  0  0  0  0
  1  4  1  0  0  0  0
  1  5  1  0  0  0  0
  5  6  1  0  0  0  0
  6  7  1  0  0  0  0
  6 23  1  0  0  0  0
  6 24  1  0  0  0  0
  7  8  1  0  0  0  0
  7  9  1  0  0  0  0
  7 25  1  6  0  0  0
  8 13  1  0  0  0  0
  9 10  1  0  0  0  0
  9 11  1  0  0  0  0
  9 26  1  6  0  0  0
 10 27  1  0  0  0  0
 11 12  1  0  0  0  0
 11 13  1  0  0  0  0
 11 28  1  6  0  0  0
 12 29  1  0  0  0  0
 13 14  1  0  0  0  0
 13 30  1  1  0  0  0
 14 15  1  0  0  0  0
 14 21  1  0  0  0  0
 15 16  2  0  0  0  0
 15 17  1  0  0  0  0
 17 18  1  0  0  0  0
 17 31  1  0  0  0  0
 18 19  2  0  0  0  0
 18 20  1  0  0  0  0
 20 21  2  0  0  0  0
 20 32  1  0  0  0  0
 21 22  1  0  0  0  0
M  CHG  2  14   1  17   1
M  END
$$$$
