BMU
 OpenBabel04041915233D

 40 41  0  0  0  0  0  0  0  0999 V2000
   33.2958   33.7526   14.7596 C   0  0  0  0  0  0  0  0  0  0  0  0
   32.5910   34.5485   15.3161 O   0  0  0  0  0  0  0  0  0  0  0  0
   34.5650   33.4701   15.1681 N   0  0  0  0  0  0  0  0  0  0  0  0
   35.1597   34.1309   16.2191 C   0  0  0  0  0  0  0  0  0  0  0  0
   36.4884   34.4672   16.0648 C   0  0  0  0  0  0  0  0  0  0  0  0
   37.1467   35.1088   17.0985 C   0  0  0  0  0  0  0  0  0  0  0  0
   36.4881   35.3784   18.2767 C   0  0  0  0  0  0  0  0  0  0  0  0
   35.1546   35.0284   18.4270 C   0  0  0  0  0  0  0  0  0  0  0  0
   34.4772   34.4085   17.3899 C   0  0  0  0  0  0  0  0  0  0  0  0
   32.9519   33.0280   13.6897 N   0  0  0  0  0  0  0  0  0  0  0  0
   31.7318   33.1834   13.1120 C   0  0  0  0  0  0  0  0  0  0  0  0
   31.0549   34.3251   12.8865 C   0  0  0  0  0  0  0  0  0  0  0  0
   29.9032   33.8899   12.2142 C   0  0  0  0  0  0  0  0  0  0  0  0
   29.8705   32.5606   12.0463 N   0  0  0  0  0  0  0  0  0  0  0  0
   31.0100   32.1430   12.6103 N   0  3  0  0  0  0  0  0  0  0  0  0
   31.3770   30.7446   12.7102 C   0  0  0  0  0  0  0  0  0  0  0  0
   28.3268   35.6308   12.9550 C   0  0  0  0  0  0  0  0  0  0  0  0
   27.6978   33.9988   11.1696 C   0  0  0  0  0  0  0  0  0  0  0  0
   29.3935   35.7622   10.6902 C   0  0  0  0  0  0  0  0  0  0  0  0
   28.8346   34.8136   11.7573 C   0  0  0  0  0  0  0  0  0  0  0  0
   37.3491   36.1364   19.5456 Cl  0  0  0  0  0  0  0  0  0  0  0  0
   35.1306   32.8088   14.6663 H   0  0  0  0  0  0  0  0  0  0  0  0
   36.9936   34.2670   15.1278 H   0  0  0  0  0  0  0  0  0  0  0  0
   38.1817   35.3868   16.9814 H   0  0  0  0  0  0  0  0  0  0  0  0
   34.6380   35.2413   19.3524 H   0  0  0  0  0  0  0  0  0  0  0  0
   33.4353   34.1174   17.4947 H   0  0  0  0  0  0  0  0  0  0  0  0
   33.5657   32.3377   13.2877 H   0  0  0  0  0  0  0  0  0  0  0  0
   31.3581   35.3465   13.1406 H   0  0  0  0  0  0  0  0  0  0  0  0
   30.6236   30.1187   12.2383 H   0  0  0  0  0  0  0  0  0  0  0  0
   31.4884   30.4609   13.7666 H   0  0  0  0  0  0  0  0  0  0  0  0
   32.3461   30.5960   12.2136 H   0  0  0  0  0  0  0  0  0  0  0  0
   27.5397   36.3088   12.6305 H   0  0  0  0  0  0  0  0  0  0  0  0
   29.1320   36.2253   13.4097 H   0  0  0  0  0  0  0  0  0  0  0  0
   27.9280   34.9630   13.7292 H   0  0  0  0  0  0  0  0  0  0  0  0
   28.0597   33.3968   10.3261 H   0  0  0  0  0  0  0  0  0  0  0  0
   26.9082   34.6571   10.8220 H   0  0  0  0  0  0  0  0  0  0  0  0
   27.2916   33.3143   11.9247 H   0  0  0  0  0  0  0  0  0  0  0  0
   30.2288   36.3597   11.0796 H   0  0  0  0  0  0  0  0  0  0  0  0
   28.6076   36.4387   10.3563 H   0  0  0  0  0  0  0  0  0  0  0  0
   29.7612   35.1895    9.8301 H   0  0  0  0  0  0  0  0  0  0  0  0
  1 10  1  0  0  0  0
  1  3  1  0  0  0  0
  1  2  2  0  0  0  0
  3  4  1  0  0  0  0
  3 22  1  0  0  0  0
  4  9  2  0  0  0  0
  4  5  1  0  0  0  0
  5  6  2  0  0  0  0
  5 23  1  0  0  0  0
  6  7  1  0  0  0  0
  6 24  1  0  0  0  0
  7  8  2  0  0  0  0
  7 21  1  0  0  0  0
  8  9  1  0  0  0  0
  8 25  1  0  0  0  0
  9 26  1  0  0  0  0
 10 11  1  0  0  0  0
 10 27  1  0  0  0  0
 11 15  2  0  0  0  0
 11 12  1  0  0  0  0
 12 13  2  0  0  0  0
 12 28  1  0  0  0  0
 13 20  1  0  0  0  0
 13 14  1  0  0  0  0
 14 15  1  0  0  0  0
 15 16  1  0  0  0  0
 16 29  1  0  0  0  0
 16 30  1  0  0  0  0
 16 31  1  0  0  0  0
 17 20  1  0  0  0  0
 17 32  1  0  0  0  0
 17 33  1  0  0  0  0
 17 34  1  0  0  0  0
 18 20  1  0  0  0  0
 18 35  1  0  0  0  0
 18 36  1  0  0  0  0
 18 37  1  0  0  0  0
 19 20  1  0  0  0  0
 19 38  1  0  0  0  0
 19 39  1  0  0  0  0
 19 40  1  0  0  0  0
M  CHG  1  15   1
M  END
$$$$
