BMZ
 OpenBabel04041914483D

 32 34  0  0  0  0  0  0  0  0999 V2000
   11.9272  -11.6006   22.6747 C   0  0  0  0  0  0  0  0  0  0  0  0
   12.2870  -10.3088   22.2324 C   0  0  0  0  0  0  0  0  0  0  0  0
   13.1106  -10.1115   21.1574 C   0  0  0  0  0  0  0  0  0  0  0  0
   13.5043  -11.2802   20.5585 C   0  0  0  0  0  0  0  0  0  0  0  0
   13.2097  -12.5709   20.9285 C   0  0  0  0  0  0  0  0  0  0  0  0
   12.3969  -12.7695   22.0263 C   0  0  0  0  0  0  0  0  0  0  0  0
   11.0403  -11.7429   23.8156 C   0  0  0  0  0  0  0  0  0  0  0  0
   10.3447  -12.8486   23.9245 N   0  0  0  0  0  0  0  0  0  0  0  0
   10.9641  -10.7715   24.6816 N   0  0  0  0  0  0  0  0  0  0  0  0
   14.2135  -11.4305   19.4365 N   0  3  0  0  0  0  0  0  0  0  0  0
   13.7914  -13.4760   20.1139 N   0  0  0  0  0  0  0  0  0  0  0  0
   14.4433  -12.7561   19.2190 C   0  0  0  0  0  0  0  0  0  0  0  0
   15.2659  -13.2488   18.1426 C   0  0  0  0  0  0  0  0  0  0  0  0
   15.2483  -14.6291   17.8865 C   0  0  0  0  0  0  0  0  0  0  0  0
   16.0112  -15.1488   16.8470 C   0  0  0  0  0  0  0  0  0  0  0  0
   16.7963  -14.2942   16.0750 C   0  0  0  0  0  0  0  0  0  0  0  0
   16.8178  -12.9353   16.3264 C   0  0  0  0  0  0  0  0  0  0  0  0
   16.0583  -12.4072   17.3501 C   0  0  0  0  0  0  0  0  0  0  0  0
   16.1498  -11.0457   17.4726 O   0  0  0  0  0  0  0  0  0  0  0  0
   11.9131   -9.4083   22.7058 H   0  0  0  0  0  0  0  0  0  0  0  0
   13.4032   -9.1367   20.7821 H   0  0  0  0  0  0  0  0  0  0  0  0
   12.1734  -13.7865   22.2999 H   0  0  0  0  0  0  0  0  0  0  0  0
    9.7292  -13.0020   24.7115 H   0  0  0  0  0  0  0  0  0  0  0  0
   11.5292   -9.9382   24.5778 H   0  0  0  0  0  0  0  0  0  0  0  0
   10.3589  -10.8110   25.5192 H   0  0  0  0  0  0  0  0  0  0  0  0
   14.4649  -10.6333   18.8848 H   0  0  0  0  0  0  0  0  0  0  0  0
   14.6336  -15.2997   18.4919 H   0  0  0  0  0  0  0  0  0  0  0  0
   15.9917  -16.2133   16.6415 H   0  0  0  0  0  0  0  0  0  0  0  0
   17.4049  -14.6871   15.2673 H   0  0  0  0  0  0  0  0  0  0  0  0
   17.4393  -12.2685   15.7290 H   0  0  0  0  0  0  0  0  0  0  0  0
   16.0660  -10.7820   18.3935 H   0  0  0  0  0  0  0  0  0  0  0  0
   10.4163  -13.5762   23.2466 H   0  0  0  0  0  0  0  0  0  0  0  0
  1  2  2  0  0  0  0
  1  6  1  0  0  0  0
  1  7  1  0  0  0  0
  2  3  1  0  0  0  0
  2 20  1  0  0  0  0
  3  4  2  0  0  0  0
  3 21  1  0  0  0  0
  4  5  1  0  0  0  0
  4 10  1  0  0  0  0
  5  6  2  0  0  0  0
  5 11  1  0  0  0  0
  6 22  1  0  0  0  0
  7  8  2  0  0  0  0
  7  9  1  0  0  0  0
  8 23  1  0  0  0  0
  8 32  1  0  0  0  0
  9 24  1  0  0  0  0
  9 25  1  0  0  0  0
 10 12  2  0  0  0  0
 10 26  1  0  0  0  0
 11 12  1  0  0  0  0
 12 13  1  0  0  0  0
 13 14  2  0  0  0  0
 13 18  1  0  0  0  0
 14 15  1  0  0  0  0
 14 27  1  0  0  0  0
 15 16  2  0  0  0  0
 15 28  1  0  0  0  0
 16 17  1  0  0  0  0
 16 29  1  0  0  0  0
 17 18  2  0  0  0  0
 17 30  1  0  0  0  0
 18 19  1  0  0  0  0
 19 31  1  0  0  0  0
M  CHG  1  10   1
M  END
$$$$
