BP3
 OpenBabel04041915323D

 24 25  0  0  0  0  0  0  0  0999 V2000
   22.4930   21.7902   16.5326 C   0  0  0  0  0  0  0  0  0  0  0  0
   21.1353   22.0219   16.2875 C   0  0  0  0  0  0  0  0  0  0  0  0
   20.6793   23.3111   16.2757 O   0  0  0  0  0  0  0  0  0  0  0  0
   20.2355   20.9649   16.0899 C   0  0  0  0  0  0  0  0  0  0  0  0
   18.9186   21.2627   15.8742 O   0  0  0  0  0  0  0  0  0  0  0  0
   20.6788   19.6444   16.1151 C   0  0  0  0  0  0  0  0  0  0  0  0
   22.0359   19.3900   16.3508 C   0  0  0  0  0  0  0  0  0  0  0  0
   22.9248   20.4399   16.5605 C   0  0  0  0  0  0  0  0  0  0  0  0
   23.4335   22.9112   16.7861 C   0  0  0  0  0  0  0  0  0  0  0  0
   23.3913   23.7029   17.9546 C   0  0  0  0  0  0  0  0  0  0  0  0
   24.2794   24.7733   18.1400 C   0  0  0  0  0  0  0  0  0  0  0  0
   25.2198   25.0847   17.1609 C   0  0  0  0  0  0  0  0  0  0  0  0
   25.2758   24.3210   16.0003 C   0  0  0  0  0  0  0  0  0  0  0  0
   24.3948   23.2471   15.8165 C   0  0  0  0  0  0  0  0  0  0  0  0
   22.2654   23.3914   19.2389 Cl  0  0  0  0  0  0  0  0  0  0  0  0
   19.8780   23.3070   16.8252 H   0  0  0  0  0  0  0  0  0  0  0  0
   18.3906   20.7246   16.4776 H   0  0  0  0  0  0  0  0  0  0  0  0
   20.0003   18.8172   15.9346 H   0  0  0  0  0  0  0  0  0  0  0  0
   22.3994   18.3776   16.3628 H   0  0  0  0  0  0  0  0  0  0  0  0
   23.9770   20.2280   16.7469 H   0  0  0  0  0  0  0  0  0  0  0  0
   24.2306   25.3740   19.0453 H   0  0  0  0  0  0  0  0  0  0  0  0
   25.9024   25.9194   17.3019 H   0  0  0  0  0  0  0  0  0  0  0  0
   26.0044   24.5654   15.2290 H   0  0  0  0  0  0  0  0  0  0  0  0
   24.4445   22.6757   14.8855 H   0  0  0  0  0  0  0  0  0  0  0  0
  1  9  1  0  0  0  0
  1  8  2  0  0  0  0
  1  2  1  0  0  0  0
  2  4  2  0  0  0  0
  2  3  1  0  0  0  0
  3 16  1  0  0  0  0
  4  6  1  0  0  0  0
  4  5  1  0  0  0  0
  5 17  1  0  0  0  0
  6  7  2  0  0  0  0
  6 18  1  0  0  0  0
  7  8  1  0  0  0  0
  7 19  1  0  0  0  0
  8 20  1  0  0  0  0
  9 14  2  0  0  0  0
  9 10  1  0  0  0  0
 10 11  2  0  0  0  0
 10 15  1  0  0  0  0
 11 12  1  0  0  0  0
 11 21  1  0  0  0  0
 12 13  2  0  0  0  0
 12 22  1  0  0  0  0
 13 14  1  0  0  0  0
 13 23  1  0  0  0  0
 14 24  1  0  0  0  0
M  END
$$$$
