BPY
 OpenBabel04041915213D

 24 25  0  0  0  0  0  0  0  0999 V2000
   20.6282  -23.1527   72.4137 C   0  0  0  0  0  0  0  0  0  0  0  0
   21.9381  -22.6472   72.3709 C   0  0  0  0  0  0  0  0  0  0  0  0
   22.1201  -21.3271   71.9430 C   0  0  0  0  0  0  0  0  0  0  0  0
   21.0277  -20.5437   71.5434 C   0  0  0  0  0  0  0  0  0  0  0  0
   19.7444  -21.0555   71.5808 C   0  0  0  0  0  0  0  0  0  0  0  0
   19.5403  -22.3638   72.0256 C   0  0  0  0  0  0  0  0  0  0  0  0
   23.0766  -23.4574   72.8002 C   0  0  0  0  0  0  0  0  0  0  0  0
   23.4466  -23.5005   74.1507 C   0  0  0  0  0  0  0  0  0  0  0  0
   24.5796  -24.2053   74.5557 C   0  0  0  0  0  0  0  0  0  0  0  0
   25.3526  -24.8815   73.6127 C   0  0  0  0  0  0  0  0  0  0  0  0
   24.9944  -24.8487   72.2646 C   0  0  0  0  0  0  0  0  0  0  0  0
   23.8630  -24.1415   71.8607 C   0  0  0  0  0  0  0  0  0  0  0  0
   21.2790  -19.2747   71.1071 O   0  0  0  0  0  0  0  0  0  0  0  0
   23.3807  -20.7949   71.9351 O   0  0  0  0  0  0  0  0  0  0  0  0
   20.4558  -24.1683   72.7634 H   0  0  0  0  0  0  0  0  0  0  0  0
   18.8948  -20.4433   71.2902 H   0  0  0  0  0  0  0  0  0  0  0  0
   18.5323  -22.7731   72.0778 H   0  0  0  0  0  0  0  0  0  0  0  0
   22.8671  -22.9497   74.8901 H   0  0  0  0  0  0  0  0  0  0  0  0
   24.8672  -24.2133   75.6038 H   0  0  0  0  0  0  0  0  0  0  0  0
   26.2422  -25.4179   73.9245 H   0  0  0  0  0  0  0  0  0  0  0  0
   25.6057  -25.3583   71.5254 H   0  0  0  0  0  0  0  0  0  0  0  0
   23.6077  -24.0946   70.8042 H   0  0  0  0  0  0  0  0  0  0  0  0
   20.8243  -19.1921   70.2487 H   0  0  0  0  0  0  0  0  0  0  0  0
   23.2661  -19.8528   72.1560 H   0  0  0  0  0  0  0  0  0  0  0  0
  1  2  2  0  0  0  0
  1  6  1  0  0  0  0
  1 15  1  0  0  0  0
  2  3  1  0  0  0  0
  2  7  1  0  0  0  0
  3  4  2  0  0  0  0
  3 14  1  0  0  0  0
  4  5  1  0  0  0  0
  4 13  1  0  0  0  0
  5  6  2  0  0  0  0
  5 16  1  0  0  0  0
  6 17  1  0  0  0  0
  7  8  2  0  0  0  0
  7 12  1  0  0  0  0
  8  9  1  0  0  0  0
  8 18  1  0  0  0  0
  9 10  2  0  0  0  0
  9 19  1  0  0  0  0
 10 11  1  0  0  0  0
 10 20  1  0  0  0  0
 11 12  2  0  0  0  0
 11 21  1  0  0  0  0
 12 22  1  0  0  0  0
 13 23  1  0  0  0  0
 14 24  1  0  0  0  0
M  END
$$$$
