BST
 OpenBabel04041917303D

 61 62  0  0  1  0  0  0  0  0999 V2000
   46.6829   17.2482   36.3755 O   0  0  0  0  0  0  0  0  0  0  0  0
   43.4157   14.7005   38.7557 N   0  0  0  0  0  0  0  0  0  0  0  0
   42.5017   13.7134   38.3808 C   0  0  0  0  0  0  0  0  0  0  0  0
   41.5001   13.8896   37.7288 O   0  0  0  0  0  0  0  0  0  0  0  0
   42.8168   12.4249   38.8240 N   0  0  0  0  0  0  0  0  0  0  0  0
   43.9099   12.0721   39.6188 C   0  0  2  0  0  0  0  0  0  0  0  0
   44.8090   13.2041   39.9472 C   0  0  0  0  0  0  0  0  0  0  0  0
   44.5644   14.4365   39.4957 C   0  0  0  0  0  0  0  0  0  0  0  0
   43.1889   16.0608   38.1957 C   0  0  1  0  0  0  0  0  0  0  0  0
   42.7591   17.0892   39.2330 C   0  0  0  0  0  0  0  0  0  0  0  0
   43.2456   18.3547   39.2348 C   0  0  0  0  0  0  0  0  0  0  0  0
   44.3527   18.7585   38.2201 C   0  0  1  0  0  0  0  0  0  0  0  0
   44.3948   17.7686   37.0280 C   0  0  2  0  0  0  0  0  0  0  0  0
   44.3966   16.4258   37.5531 O   0  0  0  0  0  0  0  0  0  0  0  0
   45.4065   18.6486   35.0747 O   0  0  0  0  0  0  0  0  0  0  0  0
   45.6236   17.9031   36.0818 C   0  0  0  0  0  0  0  0  0  0  0  0
   44.0934   20.1537   37.8131 N   0  0  0  0  0  0  0  0  0  0  0  0
   45.0598   21.1459   37.7170 C   0  0  0  0  0  0  0  0  0  0  0  0
   46.2255   21.0617   38.1037 O   0  0  0  0  0  0  0  0  0  0  0  0
   44.5487   22.4647   37.1222 C   0  0  0  0  0  0  0  0  0  0  0  0
   45.3058   23.7395   37.5631 C   0  0  1  0  0  0  0  0  0  0  0  0
   46.7362   23.7342   37.1480 N   0  3  0  0  0  0  0  0  0  0  0  0
   44.6802   25.0298   36.9572 C   0  0  0  0  0  0  0  0  0  0  0  0
   43.7599   25.7527   37.9467 C   0  0  0  0  0  0  0  0  0  0  0  0
   43.0177   26.8994   37.3534 N   0  0  0  0  0  0  0  0  0  0  0  0
   43.7278   28.1956   37.2921 C   0  0  0  0  0  0  0  0  0  0  0  0
   41.6883   26.8214   36.9763 C   0  0  0  0  0  0  0  0  0  0  0  0
   40.8986   27.9159   37.0160 N   0  0  0  0  0  0  0  0  0  0  0  0
   41.1321   25.6777   36.5420 N   0  0  0  0  0  0  0  0  0  0  0  0
   44.6620   11.0821   38.8795 N   0  3  0  0  0  0  0  0  0  0  0  0
   43.4048   11.5064   40.7919 O   0  0  0  0  0  0  0  0  0  0  0  0
   42.0886   11.7351   38.6135 H   0  0  0  0  0  0  0  0  0  0  0  0
   45.7101   13.0242   40.5301 H   0  0  0  0  0  0  0  0  0  0  0  0
   45.2681   15.2529   39.6930 H   0  0  0  0  0  0  0  0  0  0  0  0
   42.4005   16.0324   37.4377 H   0  0  0  0  0  0  0  0  0  0  0  0
   41.9804   16.7869   39.9290 H   0  0  0  0  0  0  0  0  0  0  0  0
   42.8851   19.0597   39.9966 H   0  0  0  0  0  0  0  0  0  0  0  0
   45.2958   18.6879   38.7642 H   0  0  0  0  0  0  0  0  0  0  0  0
   43.5005   17.9090   36.3932 H   0  0  0  0  0  0  0  0  0  0  0  0
   43.1965   20.3053   37.3791 H   0  0  0  0  0  0  0  0  0  0  0  0
   43.5066   22.5952   37.4389 H   0  0  0  0  0  0  0  0  0  0  0  0
   44.5634   22.3852   36.0290 H   0  0  0  0  0  0  0  0  0  0  0  0
   45.3242   23.8022   38.6551 H   0  0  0  0  0  0  0  0  0  0  0  0
   47.2344   24.5771   37.4585 H   0  0  0  0  0  0  0  0  0  0  0  0
   47.2312   22.9215   37.5665 H   0  0  0  0  0  0  0  0  0  0  0  0
   44.1080   24.7797   36.0591 H   0  0  0  0  0  0  0  0  0  0  0  0
   45.4662   25.7329   36.6425 H   0  0  0  0  0  0  0  0  0  0  0  0
   44.3594   26.1382   38.7821 H   0  0  0  0  0  0  0  0  0  0  0  0
   43.0329   25.0518   38.3686 H   0  0  0  0  0  0  0  0  0  0  0  0
   43.0973   28.9642   36.8428 H   0  0  0  0  0  0  0  0  0  0  0  0
   44.6055   28.0777   36.6509 H   0  0  0  0  0  0  0  0  0  0  0  0
   44.0365   28.5143   38.2909 H   0  0  0  0  0  0  0  0  0  0  0  0
   39.9192   27.9032   36.7503 H   0  0  0  0  0  0  0  0  0  0  0  0
   41.6583   24.8341   36.4052 H   0  0  0  0  0  0  0  0  0  0  0  0
   40.1761   25.6660   36.2094 H   0  0  0  0  0  0  0  0  0  0  0  0
   45.5036   10.8378   39.4028 H   0  0  0  0  0  0  0  0  0  0  0  0
   44.1053   10.2316   38.7657 H   0  0  0  0  0  0  0  0  0  0  0  0
   42.8706   12.1964   41.2354 H   0  0  0  0  0  0  0  0  0  0  0  0
   46.8633   23.6507   36.1291 H   0  0  0  0  0  0  0  0  0  0  0  0
   41.2328   28.7902   37.4010 H   0  0  0  0  0  0  0  0  0  0  0  0
   44.9337   11.4495   37.9659 H   0  0  0  0  0  0  0  0  0  0  0  0
  1 16  2  0  0  0  0
  2  3  1  0  0  0  0
  2  8  1  0  0  0  0
  2  9  1  0  0  0  0
  3  4  2  0  0  0  0
  3  5  1  0  0  0  0
  5  6  1  0  0  0  0
  5 32  1  0  0  0  0
  6  7  1  0  0  0  0
  6 30  1  6  0  0  0
  6 31  1  0  0  0  0
  7  8  2  0  0  0  0
  7 33  1  0  0  0  0
  8 34  1  0  0  0  0
  9 10  1  0  0  0  0
  9 14  1  0  0  0  0
  9 35  1  6  0  0  0
 10 11  2  0  0  0  0
 10 36  1  0  0  0  0
 11 12  1  0  0  0  0
 11 37  1  0  0  0  0
 12 13  1  0  0  0  0
 12 17  1  0  0  0  0
 12 38  1  1  0  0  0
 13 14  1  0  0  0  0
 13 16  1  0  0  0  0
 13 39  1  6  0  0  0
 15 16  1  0  0  0  0
 17 18  1  0  0  0  0
 17 40  1  0  0  0  0
 18 19  2  0  0  0  0
 18 20  1  0  0  0  0
 20 21  1  0  0  0  0
 20 41  1  0  0  0  0
 20 42  1  0  0  0  0
 21 22  1  0  0  0  0
 21 23  1  0  0  0  0
 21 43  1  1  0  0  0
 22 44  1  0  0  0  0
 22 45  1  0  0  0  0
 22 59  1  0  0  0  0
 23 24  1  0  0  0  0
 23 46  1  0  0  0  0
 23 47  1  0  0  0  0
 24 25  1  0  0  0  0
 24 48  1  0  0  0  0
 24 49  1  0  0  0  0
 25 26  1  0  0  0  0
 25 27  1  0  0  0  0
 26 50  1  0  0  0  0
 26 51  1  0  0  0  0
 26 52  1  0  0  0  0
 27 28  2  0  0  0  0
 27 29  1  0  0  0  0
 28 53  1  0  0  0  0
 28 60  1  0  0  0  0
 29 54  1  0  0  0  0
 29 55  1  0  0  0  0
 30 56  1  0  0  0  0
 30 57  1  0  0  0  0
 30 61  1  0  0  0  0
 31 58  1  0  0  0  0
M  CHG  2  22   1  30   1
M  END
$$$$
