BT3
 OpenBabel04041914153D

 78 83  0  0  0  0  0  0  0  0999 V2000
  -23.9169  -30.8918   24.1957 C   0  0  0  0  0  0  0  0  0  0  0  0
  -24.1851  -32.0215   23.4420 C   0  0  0  0  0  0  0  0  0  0  0  0
  -23.2852  -32.3983   22.4099 C   0  0  0  0  0  0  0  0  0  0  0  0
  -22.1233  -31.6708   22.1510 C   0  0  0  0  0  0  0  0  0  0  0  0
  -21.9187  -30.4758   22.8986 C   0  0  0  0  0  0  0  0  0  0  0  0
  -22.8182  -30.0900   23.9140 C   0  0  0  0  0  0  0  0  0  0  0  0
  -23.4339  -33.7220   21.3232 S   0  0  0  0  0  0  0  0  0  0  0  0
  -21.9276  -33.4137   20.5566 C   0  0  0  0  0  0  0  0  0  0  0  0
  -21.2821  -32.3161   21.1374 C   0  0  0  0  0  0  0  0  0  0  0  0
  -19.9039  -31.8065   20.7724 C   0  0  0  0  0  0  0  0  0  0  0  0
  -21.4701  -34.3098   19.4647 C   0  0  0  0  0  0  0  0  0  0  0  0
  -20.9458  -33.8049   18.2705 C   0  0  0  0  0  0  0  0  0  0  0  0
  -20.4406  -34.6699   17.2943 C   0  0  0  0  0  0  0  0  0  0  0  0
  -20.4646  -36.0293   17.5339 C   0  0  0  0  0  0  0  0  0  0  0  0
  -20.9764  -36.5812   18.6511 N   0  0  0  0  0  0  0  0  0  0  0  0
  -21.4803  -35.7057   19.5759 C   0  0  0  0  0  0  0  0  0  0  0  0
  -20.0137  -36.8395   16.5077 O   0  0  0  0  0  0  0  0  0  0  0  0
  -19.3518  -38.0243   16.9594 C   0  0  0  0  0  0  0  0  0  0  0  0
  -18.9594  -33.8846   22.0480 C   0  0  0  0  0  0  0  0  0  0  0  0
  -18.7938  -32.7139   21.2885 C   0  0  0  0  0  0  0  0  0  0  0  0
  -17.4731  -32.3662   20.9518 C   0  0  0  0  0  0  0  0  0  0  0  0
  -16.3838  -33.1687   21.3183 C   0  0  0  0  0  0  0  0  0  0  0  0
  -16.5675  -34.3535   22.0303 C   0  0  0  0  0  0  0  0  0  0  0  0
  -17.8654  -34.7053   22.3948 C   0  0  0  0  0  0  0  0  0  0  0  0
  -15.4104  -35.0285   22.3208 O   0  0  0  0  0  0  0  0  0  0  0  0
  -15.4527  -36.2544   23.0594 C   0  0  0  0  0  0  0  0  0  0  0  0
  -13.2466  -33.8932   26.1737 C   0  0  0  0  0  0  0  0  0  0  0  0
  -14.2957  -34.1299   27.2359 C   0  0  0  0  0  0  0  0  0  0  0  0
  -15.0687  -35.3673   26.8272 C   0  0  0  0  0  0  0  0  0  0  0  0
  -14.6260  -35.7057   25.4198 N   0  3  0  0  0  0  0  0  0  0  0  0
  -13.7703  -34.5696   24.9295 C   0  0  0  0  0  0  0  0  0  0  0  0
  -18.3425  -37.4833   13.7066 C   0  0  0  0  0  0  0  0  0  0  0  0
  -17.8794  -38.2162   14.9396 N   0  3  0  0  0  0  0  0  0  0  0  0
  -16.7446  -39.0958   14.4817 C   0  0  0  0  0  0  0  0  0  0  0  0
  -16.1346  -38.3511   13.2969 C   0  0  0  0  0  0  0  0  0  0  0  0
  -17.0351  -37.1527   13.0259 C   0  0  0  0  0  0  0  0  0  0  0  0
  -15.8132  -36.0355   24.5357 C   0  0  0  0  0  0  0  0  0  0  0  0
  -19.0106  -38.8739   15.7199 C   0  0  0  0  0  0  0  0  0  0  0  0
  -24.7036  -30.4818   25.2303 O   0  0  0  0  0  0  0  0  0  0  0  0
  -25.0709  -32.6228   23.6446 H   0  0  0  0  0  0  0  0  0  0  0  0
  -21.0732  -29.8320   22.6976 H   0  0  0  0  0  0  0  0  0  0  0  0
  -22.6317  -29.1847   24.4752 H   0  0  0  0  0  0  0  0  0  0  0  0
  -19.7495  -30.7957   21.1637 H   0  0  0  0  0  0  0  0  0  0  0  0
  -19.8207  -31.7259   19.6829 H   0  0  0  0  0  0  0  0  0  0  0  0
  -20.9325  -32.7367   18.0717 H   0  0  0  0  0  0  0  0  0  0  0  0
  -20.0328  -34.2795   16.3685 H   0  0  0  0  0  0  0  0  0  0  0  0
  -21.9041  -36.1877   20.4551 H   0  0  0  0  0  0  0  0  0  0  0  0
  -19.9765  -38.6158   17.6371 H   0  0  0  0  0  0  0  0  0  0  0  0
  -18.4266  -37.7370   17.4753 H   0  0  0  0  0  0  0  0  0  0  0  0
  -19.9472  -34.1895   22.3855 H   0  0  0  0  0  0  0  0  0  0  0  0
  -17.2779  -31.4510   20.3901 H   0  0  0  0  0  0  0  0  0  0  0  0
  -15.3785  -32.8580   21.0330 H   0  0  0  0  0  0  0  0  0  0  0  0
  -18.0902  -35.6059   22.9543 H   0  0  0  0  0  0  0  0  0  0  0  0
  -14.4521  -36.6993   22.9886 H   0  0  0  0  0  0  0  0  0  0  0  0
  -16.1356  -36.9626   22.5767 H   0  0  0  0  0  0  0  0  0  0  0  0
  -12.2860  -34.3204   26.4765 H   0  0  0  0  0  0  0  0  0  0  0  0
  -13.0911  -32.8250   25.9987 H   0  0  0  0  0  0  0  0  0  0  0  0
  -13.8428  -34.2584   28.2257 H   0  0  0  0  0  0  0  0  0  0  0  0
  -14.9740  -33.2712   27.3054 H   0  0  0  0  0  0  0  0  0  0  0  0
  -14.8678  -36.2370   27.4564 H   0  0  0  0  0  0  0  0  0  0  0  0
  -16.1499  -35.1645   26.8248 H   0  0  0  0  0  0  0  0  0  0  0  0
  -14.3881  -33.8893   24.3456 H   0  0  0  0  0  0  0  0  0  0  0  0
  -12.9675  -34.9885   24.3080 H   0  0  0  0  0  0  0  0  0  0  0  0
  -18.9116  -36.6047   14.0151 H   0  0  0  0  0  0  0  0  0  0  0  0
  -18.9539  -38.1704   13.1126 H   0  0  0  0  0  0  0  0  0  0  0  0
  -17.1471  -40.0693   14.1836 H   0  0  0  0  0  0  0  0  0  0  0  0
  -16.0445  -39.2085   15.3163 H   0  0  0  0  0  0  0  0  0  0  0  0
  -15.1112  -38.0234   13.5120 H   0  0  0  0  0  0  0  0  0  0  0  0
  -16.0812  -39.0084   12.4219 H   0  0  0  0  0  0  0  0  0  0  0  0
  -16.5993  -36.2516   13.4739 H   0  0  0  0  0  0  0  0  0  0  0  0
  -17.1669  -36.9618   11.9568 H   0  0  0  0  0  0  0  0  0  0  0  0
  -16.2442  -36.9493   24.9552 H   0  0  0  0  0  0  0  0  0  0  0  0
  -16.5127  -35.2062   24.6587 H   0  0  0  0  0  0  0  0  0  0  0  0
  -19.8723  -38.9511   15.0458 H   0  0  0  0  0  0  0  0  0  0  0  0
  -18.6793  -39.8778   16.0014 H   0  0  0  0  0  0  0  0  0  0  0  0
  -25.4191  -31.1205   25.3668 H   0  0  0  0  0  0  0  0  0  0  0  0
  -14.0191  -36.5335   25.4890 H   0  0  0  0  0  0  0  0  0  0  0  0
  -17.4582  -37.5000   15.5483 H   0  0  0  0  0  0  0  0  0  0  0  0
  1 39  1  0  0  0  0
  1  6  2  0  0  0  0
  1  2  1  0  0  0  0
  2  3  2  0  0  0  0
  2 40  1  0  0  0  0
  3  7  1  0  0  0  0
  3  4  1  0  0  0  0
  4  9  1  0  0  0  0
  4  5  2  0  0  0  0
  5  6  1  0  0  0  0
  5 41  1  0  0  0  0
  6 42  1  0  0  0  0
  7  8  1  0  0  0  0
  8  9  2  0  0  0  0
  8 11  1  0  0  0  0
  9 10  1  0  0  0  0
 10 20  1  0  0  0  0
 10 43  1  0  0  0  0
 10 44  1  0  0  0  0
 11 16  2  0  0  0  0
 11 12  1  0  0  0  0
 12 13  2  0  0  0  0
 12 45  1  0  0  0  0
 13 14  1  0  0  0  0
 13 46  1  0  0  0  0
 14 17  1  0  0  0  0
 14 15  2  0  0  0  0
 15 16  1  0  0  0  0
 16 47  1  0  0  0  0
 17 18  1  0  0  0  0
 18 38  1  0  0  0  0
 18 48  1  0  0  0  0
 18 49  1  0  0  0  0
 19 20  2  0  0  0  0
 19 24  1  0  0  0  0
 19 50  1  0  0  0  0
 20 21  1  0  0  0  0
 21 22  2  0  0  0  0
 21 51  1  0  0  0  0
 22 23  1  0  0  0  0
 22 52  1  0  0  0  0
 23 25  1  0  0  0  0
 23 24  2  0  0  0  0
 24 53  1  0  0  0  0
 25 26  1  0  0  0  0
 26 37  1  0  0  0  0
 26 54  1  0  0  0  0
 26 55  1  0  0  0  0
 27 28  1  0  0  0  0
 27 31  1  0  0  0  0
 27 56  1  0  0  0  0
 27 57  1  0  0  0  0
 28 29  1  0  0  0  0
 28 58  1  0  0  0  0
 28 59  1  0  0  0  0
 29 30  1  0  0  0  0
 29 60  1  0  0  0  0
 29 61  1  0  0  0  0
 30 37  1  0  0  0  0
 30 31  1  0  0  0  0
 30 77  1  0  0  0  0
 31 62  1  0  0  0  0
 31 63  1  0  0  0  0
 32 33  1  0  0  0  0
 32 36  1  0  0  0  0
 32 64  1  0  0  0  0
 32 65  1  0  0  0  0
 33 38  1  0  0  0  0
 33 34  1  0  0  0  0
 33 78  1  0  0  0  0
 34 35  1  0  0  0  0
 34 66  1  0  0  0  0
 34 67  1  0  0  0  0
 35 36  1  0  0  0  0
 35 68  1  0  0  0  0
 35 69  1  0  0  0  0
 36 70  1  0  0  0  0
 36 71  1  0  0  0  0
 37 72  1  0  0  0  0
 37 73  1  0  0  0  0
 38 74  1  0  0  0  0
 38 75  1  0  0  0  0
 39 76  1  0  0  0  0
M  CHG  2  30   1  33   1
M  END
$$$$
