BTN
 OpenBabel04041916533D

 31 32  0  0  1  0  0  0  0  0999 V2000
    7.3664  -16.0753   24.0361 C   0  0  0  0  0  0  0  0  0  0  0  0
    7.0060  -14.9462   24.4706 O   0  0  0  0  0  0  0  0  0  0  0  0
    6.7875  -16.7891   23.1709 O   0  0  0  0  0  0  0  0  0  0  0  0
    8.6674  -16.6324   24.6400 C   0  0  0  0  0  0  0  0  0  0  0  0
    9.5852  -15.4992   25.1167 C   0  0  0  0  0  0  0  0  0  0  0  0
   10.3132  -14.8512   23.9309 C   0  0  0  0  0  0  0  0  0  0  0  0
   11.1471  -13.6199   24.3353 C   0  0  0  0  0  0  0  0  0  0  0  0
   11.9340  -13.0036   23.1787 C   0  0  2  0  0  0  0  0  0  0  0  0
   13.1112  -14.0942   22.3427 S   0  0  0  0  0  0  0  0  0  0  0  0
   13.7621  -12.7180   21.3760 C   0  0  0  0  0  0  0  0  0  0  0  0
   13.7931  -11.5264   22.3209 C   0  0  2  0  0  0  0  0  0  0  0  0
   15.0458  -11.4321   23.0353 N   0  0  0  0  0  0  0  0  0  0  0  0
   14.8815  -11.5705   24.4014 C   0  0  0  0  0  0  0  0  0  0  0  0
   15.7410  -11.5197   25.2370 O   0  0  0  0  0  0  0  0  0  0  0  0
   13.5314  -11.7321   24.6384 N   0  0  0  0  0  0  0  0  0  0  0  0
   12.7379  -11.7193   23.4347 C   0  0  2  0  0  0  0  0  0  0  0  0
    9.1874  -17.2400   23.8939 H   0  0  0  0  0  0  0  0  0  0  0  0
    8.4005  -17.2654   25.4975 H   0  0  0  0  0  0  0  0  0  0  0  0
   10.3242  -15.9049   25.8173 H   0  0  0  0  0  0  0  0  0  0  0  0
    8.9985  -14.7348   25.6422 H   0  0  0  0  0  0  0  0  0  0  0  0
    9.5636  -14.5598   23.1836 H   0  0  0  0  0  0  0  0  0  0  0  0
   10.9682  -15.6103   23.4873 H   0  0  0  0  0  0  0  0  0  0  0  0
   11.8386  -13.9052   25.1289 H   0  0  0  0  0  0  0  0  0  0  0  0
   10.4600  -12.8511   24.7141 H   0  0  0  0  0  0  0  0  0  0  0  0
   11.1828  -12.7203   22.4459 H   0  0  0  0  0  0  0  0  0  0  0  0
   13.0800  -12.5042   20.5460 H   0  0  0  0  0  0  0  0  0  0  0  0
   14.7537  -12.9484   20.9914 H   0  0  0  0  0  0  0  0  0  0  0  0
   13.6467  -10.5926   21.7646 H   0  0  0  0  0  0  0  0  0  0  0  0
   15.9655  -11.3178   22.6311 H   0  0  0  0  0  0  0  0  0  0  0  0
   13.1785  -11.8597   25.5681 H   0  0  0  0  0  0  0  0  0  0  0  0
   12.0558  -10.8669   23.4725 H   0  0  0  0  0  0  0  0  0  0  0  0
  1  4  1  0  0  0  0
  1  3  2  0  0  0  0
  1  2  1  0  0  0  0
  4  5  1  0  0  0  0
  4 17  1  0  0  0  0
  4 18  1  0  0  0  0
  5  6  1  0  0  0  0
  5 19  1  0  0  0  0
  5 20  1  0  0  0  0
  6  7  1  0  0  0  0
  6 21  1  0  0  0  0
  6 22  1  0  0  0  0
  7  8  1  0  0  0  0
  7 23  1  0  0  0  0
  7 24  1  0  0  0  0
  8 16  1  0  0  0  0
  8  9  1  0  0  0  0
  8 25  1  6  0  0  0
  9 10  1  0  0  0  0
 10 11  1  0  0  0  0
 10 26  1  0  0  0  0
 10 27  1  0  0  0  0
 11 16  1  0  0  0  0
 11 12  1  0  0  0  0
 11 28  1  6  0  0  0
 12 13  1  0  0  0  0
 12 29  1  0  0  0  0
 13 15  1  0  0  0  0
 13 14  2  0  0  0  0
 15 16  1  0  0  0  0
 15 30  1  0  0  0  0
 16 31  1  1  0  0  0
M  END
$$$$
