BTN
 OpenBabel04041916533D

 31 32  0  0  1  0  0  0  0  0999 V2000
   13.8674   15.4736   18.2033 C   0  0  0  0  0  0  0  0  0  0  0  0
   14.0805   15.9288   17.0456 O   0  0  0  0  0  0  0  0  0  0  0  0
   14.6882   14.9868   19.0318 O   0  0  0  0  0  0  0  0  0  0  0  0
   12.4108   15.5063   18.6892 C   0  0  0  0  0  0  0  0  0  0  0  0
   11.5747   16.6086   18.0281 C   0  0  0  0  0  0  0  0  0  0  0  0
   11.8828   17.9520   18.6964 C   0  0  0  0  0  0  0  0  0  0  0  0
   11.1165   19.1507   18.1213 C   0  0  0  0  0  0  0  0  0  0  0  0
   11.5273   20.4627   18.8100 C   0  0  2  0  0  0  0  0  0  0  0  0
   11.0759   20.5796   20.5720 S   0  0  0  0  0  0  0  0  0  0  0  0
   11.4551   22.3423   20.6107 C   0  0  0  0  0  0  0  0  0  0  0  0
   10.9536   22.8859   19.2746 C   0  0  2  0  0  0  0  0  0  0  0  0
    9.5709   23.3165   19.3213 N   0  0  0  0  0  0  0  0  0  0  0  0
    8.7665   22.5935   18.4678 C   0  0  0  0  0  0  0  0  0  0  0  0
    7.5725   22.7474   18.3273 O   0  0  0  0  0  0  0  0  0  0  0  0
    9.5623   21.6894   17.8012 N   0  0  0  0  0  0  0  0  0  0  0  0
   10.9535   21.7596   18.2081 C   0  0  2  0  0  0  0  0  0  0  0  0
   12.3942   15.6269   19.7817 H   0  0  0  0  0  0  0  0  0  0  0  0
   11.9704   14.5253   18.4752 H   0  0  0  0  0  0  0  0  0  0  0  0
   10.5098   16.3728   18.1355 H   0  0  0  0  0  0  0  0  0  0  0  0
   11.7785   16.6618   16.9526 H   0  0  0  0  0  0  0  0  0  0  0  0
   12.9584   18.1481   18.6141 H   0  0  0  0  0  0  0  0  0  0  0  0
   11.6509   17.8535   19.7620 H   0  0  0  0  0  0  0  0  0  0  0  0
   10.0374   18.9799   18.2133 H   0  0  0  0  0  0  0  0  0  0  0  0
   11.3404   19.2337   17.0503 H   0  0  0  0  0  0  0  0  0  0  0  0
   12.6210   20.5403   18.7718 H   0  0  0  0  0  0  0  0  0  0  0  0
   12.5437   22.4457   20.6674 H   0  0  0  0  0  0  0  0  0  0  0  0
   11.0075   22.8345   21.4774 H   0  0  0  0  0  0  0  0  0  0  0  0
   11.5458   23.7550   18.9686 H   0  0  0  0  0  0  0  0  0  0  0  0
    9.1785   24.0366   19.9113 H   0  0  0  0  0  0  0  0  0  0  0  0
    9.1739   21.0472   17.1246 H   0  0  0  0  0  0  0  0  0  0  0  0
   11.5367   22.0590   17.3307 H   0  0  0  0  0  0  0  0  0  0  0  0
  1  4  1  0  0  0  0
  1  3  2  0  0  0  0
  1  2  1  0  0  0  0
  4  5  1  0  0  0  0
  4 17  1  0  0  0  0
  4 18  1  0  0  0  0
  5  6  1  0  0  0  0
  5 19  1  0  0  0  0
  5 20  1  0  0  0  0
  6  7  1  0  0  0  0
  6 21  1  0  0  0  0
  6 22  1  0  0  0  0
  7  8  1  0  0  0  0
  7 23  1  0  0  0  0
  7 24  1  0  0  0  0
  8 16  1  0  0  0  0
  8  9  1  0  0  0  0
  8 25  1  6  0  0  0
  9 10  1  0  0  0  0
 10 11  1  0  0  0  0
 10 26  1  0  0  0  0
 10 27  1  0  0  0  0
 11 16  1  0  0  0  0
 11 12  1  0  0  0  0
 11 28  1  6  0  0  0
 12 13  1  0  0  0  0
 12 29  1  0  0  0  0
 13 15  1  0  0  0  0
 13 14  2  0  0  0  0
 15 16  1  0  0  0  0
 15 30  1  0  0  0  0
 16 31  1  6  0  0  0
M  END
$$$$
