BUQ
 OpenBabel04041914173D

 14 13  0  0  0  0  0  0  0  0999 V2000
   60.8062   -6.0559   -1.8842 C   0  0  0  0  0  0  0  0  0  0  0  0
   60.5888   -5.5851   -0.4707 C   0  0  0  0  0  0  0  0  0  0  0  0
   60.5070   -6.4070    0.4557 O   0  0  0  0  0  0  0  0  0  0  0  0
   60.5444   -4.1022   -0.1681 C   0  0  0  0  0  0  0  0  0  0  0  0
   60.2447   -3.2108   -1.3586 C   0  0  0  0  0  0  0  0  0  0  0  0
   59.0941   -3.5900   -2.1040 O   0  0  0  0  0  0  0  0  0  0  0  0
   60.8183   -7.1485   -1.9069 H   0  0  0  0  0  0  0  0  0  0  0  0
   61.7586   -5.6820   -2.2719 H   0  0  0  0  0  0  0  0  0  0  0  0
   59.9829   -5.7271   -2.5171 H   0  0  0  0  0  0  0  0  0  0  0  0
   61.5171   -3.8070    0.2457 H   0  0  0  0  0  0  0  0  0  0  0  0
   59.7915   -3.9462    0.6129 H   0  0  0  0  0  0  0  0  0  0  0  0
   61.0875   -3.2310   -2.0453 H   0  0  0  0  0  0  0  0  0  0  0  0
   60.0980   -2.1805   -1.0175 H   0  0  0  0  0  0  0  0  0  0  0  0
   58.3110   -3.5142   -1.5331 H   0  0  0  0  0  0  0  0  0  0  0  0
  1  2  1  0  0  0  0
  1  7  1  0  0  0  0
  1  8  1  0  0  0  0
  1  9  1  0  0  0  0
  2  4  1  0  0  0  0
  2  3  2  0  0  0  0
  4  5  1  0  0  0  0
  4 10  1  0  0  0  0
  4 11  1  0  0  0  0
  5  6  1  0  0  0  0
  5 12  1  0  0  0  0
  5 13  1  0  0  0  0
  6 14  1  0  0  0  0
M  END
$$$$
