BZS
 OpenBabel04041917293D

 25 25  0  0  1  0  0  0  0  0999 V2000
   66.2463   32.2858   71.9829 C   0  0  0  0  0  0  0  0  0  0  0  0
   65.7989   33.7236   72.3365 C   0  0  0  0  0  0  0  0  0  0  0  0
   64.4447   33.8143   73.0283 C   0  0  2  0  0  0  0  0  0  0  0  0
   63.3455   32.9967   72.3201 C   0  0  0  0  0  0  0  0  0  0  0  0
   63.8931   35.2508   73.1359 C   0  0  0  0  0  0  0  0  0  0  0  0
   63.8607   36.0112   71.8329 C   0  0  0  0  0  0  0  0  0  0  0  0
   62.8879   35.7461   70.8667 C   0  0  0  0  0  0  0  0  0  0  0  0
   64.8620   36.9595   71.5763 C   0  0  0  0  0  0  0  0  0  0  0  0
   62.9309   36.4264   69.6572 C   0  0  0  0  0  0  0  0  0  0  0  0
   64.8762   37.6734   70.3865 C   0  0  0  0  0  0  0  0  0  0  0  0
   63.9128   37.3953   69.4246 C   0  0  0  0  0  0  0  0  0  0  0  0
   66.1810   31.4160   72.9064 O   0  0  0  0  0  0  0  0  0  0  0  0
   66.8127   32.1852   70.8523 O   0  0  0  0  0  0  0  0  0  0  0  0
   62.3266   32.8106   73.0270 O   0  0  0  0  0  0  0  0  0  0  0  0
   63.4840   32.7569   71.0872 O   0  0  0  0  0  0  0  0  0  0  0  0
   65.7722   34.2951   71.3987 H   0  0  0  0  0  0  0  0  0  0  0  0
   66.5607   34.1954   72.9725 H   0  0  0  0  0  0  0  0  0  0  0  0
   64.5368   33.4338   74.0532 H   0  0  0  0  0  0  0  0  0  0  0  0
   64.5122   35.8225   73.8434 H   0  0  0  0  0  0  0  0  0  0  0  0
   62.8731   35.2490   73.5483 H   0  0  0  0  0  0  0  0  0  0  0  0
   62.1293   34.9765   71.0451 H   0  0  0  0  0  0  0  0  0  0  0  0
   65.6391   37.1096   72.3168 H   0  0  0  0  0  0  0  0  0  0  0  0
   62.1955   36.1960   68.8962 H   0  0  0  0  0  0  0  0  0  0  0  0
   65.6434   38.4241   70.2184 H   0  0  0  0  0  0  0  0  0  0  0  0
   63.9216   37.9270   68.4818 H   0  0  0  0  0  0  0  0  0  0  0  0
  1 13  2  0  0  0  0
  1 12  1  0  0  0  0
  1  2  1  0  0  0  0
  2  3  1  0  0  0  0
  2 16  1  0  0  0  0
  2 17  1  0  0  0  0
  3  5  1  0  0  0  0
  3  4  1  0  0  0  0
  3 18  1  1  0  0  0
  4 15  2  0  0  0  0
  4 14  1  0  0  0  0
  5  6  1  0  0  0  0
  5 19  1  0  0  0  0
  5 20  1  0  0  0  0
  6  8  2  0  0  0  0
  6  7  1  0  0  0  0
  7  9  2  0  0  0  0
  7 21  1  0  0  0  0
  8 10  1  0  0  0  0
  8 22  1  0  0  0  0
  9 11  1  0  0  0  0
  9 23  1  0  0  0  0
 10 11  2  0  0  0  0
 10 24  1  0  0  0  0
 11 25  1  0  0  0  0
M  END
$$$$
