C20
 OpenBabel04041914563D

 92 93  0  0  1  0  0  0  0  0999 V2000
   18.5357   37.2192   15.0040 C   0  0  0  0  0  0  0  0  0  0  0  0
   18.3550   35.7802   15.4248 C   0  0  0  0  0  0  0  0  0  0  0  0
   19.2469   35.1254   15.9086 O   0  0  0  0  0  0  0  0  0  0  0  0
   17.0931   35.2745   15.2068 N   0  0  0  0  0  0  0  0  0  0  0  0
   16.7958   33.8600   15.4765 C   0  0  1  0  0  0  0  0  0  0  0  0
   15.7768   33.7211   16.6185 C   0  0  0  0  0  0  0  0  0  0  0  0
   15.4082   32.2565   16.8679 C   0  0  0  0  0  0  0  0  0  0  0  0
   16.3490   34.3323   17.8996 C   0  0  0  0  0  0  0  0  0  0  0  0
   16.2721   33.1729   14.1950 C   0  0  0  0  0  0  0  0  0  0  0  0
   15.1724   33.3708   13.7438 O   0  0  0  0  0  0  0  0  0  0  0  0
   17.1705   32.2897   13.6316 N   0  0  0  0  0  0  0  0  0  0  0  0
   16.8458   31.5369   12.4137 C   0  0  1  0  0  0  0  0  0  0  0  0
   17.7161   32.0262   11.2472 C   0  0  0  0  0  0  0  0  0  0  0  0
   17.6761   33.5302   11.0379 C   0  0  0  0  0  0  0  0  0  0  0  0
   18.4500   34.3817   11.8614 C   0  0  0  0  0  0  0  0  0  0  0  0
   18.3755   35.7620   11.6775 C   0  0  0  0  0  0  0  0  0  0  0  0
   17.5514   36.2960   10.6817 C   0  0  0  0  0  0  0  0  0  0  0  0
   16.7860   35.4624    9.8598 C   0  0  0  0  0  0  0  0  0  0  0  0
   16.8431   34.0765   10.0354 C   0  0  0  0  0  0  0  0  0  0  0  0
   17.0910   30.0371   12.6360 C   0  0  1  0  0  0  0  0  0  0  0  0
   18.3910   29.7675   13.1894 O   0  0  0  0  0  0  0  0  0  0  0  0
   16.1240   29.4345   13.6185 C   0  0  0  0  0  0  0  0  0  0  0  0
   14.8203   29.2227   13.0359 N   0  0  0  0  0  0  0  0  0  0  0  0
   14.1173   28.4168   14.0422 C   0  0  0  0  0  0  0  0  0  0  0  0
   12.6638   28.3726   13.6562 C   0  0  0  0  0  0  0  0  0  0  0  0
   11.7937   28.8872   14.7864 C   0  0  0  0  0  0  0  0  0  0  0  0
   10.3307   28.8018   14.4062 C   0  0  0  0  0  0  0  0  0  0  0  0
    9.9595   27.3749   14.0474 C   0  0  0  0  0  0  0  0  0  0  0  0
   10.8515   26.8323   12.9483 C   0  0  0  0  0  0  0  0  0  0  0  0
   12.3038   26.9329   13.3417 C   0  0  0  0  0  0  0  0  0  0  0  0
   14.9046   28.5207   11.8041 N   0  0  0  0  0  0  0  0  0  0  0  0
   14.2747   29.0199   10.6799 C   0  0  0  0  0  0  0  0  0  0  0  0
   13.7220   30.0988   10.6238 O   0  0  0  0  0  0  0  0  0  0  0  0
   14.2530   28.0363    9.4918 C   0  0  1  0  0  0  0  0  0  0  0  0
   12.9718   27.3087    9.4811 N   0  0  0  0  0  0  0  0  0  0  0  0
   14.4625   28.8031    8.1770 C   0  0  0  0  0  0  0  0  0  0  0  0
   15.7140   29.6773    8.2397 C   0  0  0  0  0  0  0  0  0  0  0  0
   14.6262   27.8156    7.0287 C   0  0  0  0  0  0  0  0  0  0  0  0
   12.9349   25.9413    9.6233 C   0  0  0  0  0  0  0  0  0  0  0  0
   13.9406   25.2822    9.7650 O   0  0  0  0  0  0  0  0  0  0  0  0
   11.5767   25.2993    9.5872 C   0  0  0  0  0  0  0  0  0  0  0  0
   19.5701   37.5140   15.1985 H   0  0  0  0  0  0  0  0  0  0  0  0
   17.8655   37.8739   15.5597 H   0  0  0  0  0  0  0  0  0  0  0  0
   18.3359   37.3404   13.9437 H   0  0  0  0  0  0  0  0  0  0  0  0
   16.3490   35.8844   14.8949 H   0  0  0  0  0  0  0  0  0  0  0  0
   17.7254   33.3657   15.7682 H   0  0  0  0  0  0  0  0  0  0  0  0
   14.8581   34.2612   16.3566 H   0  0  0  0  0  0  0  0  0  0  0  0
   14.6874   32.1707   17.6895 H   0  0  0  0  0  0  0  0  0  0  0  0
   16.2971   31.6690   17.1256 H   0  0  0  0  0  0  0  0  0  0  0  0
   14.9501   31.8115   15.9774 H   0  0  0  0  0  0  0  0  0  0  0  0
   16.6140   35.3839   17.7435 H   0  0  0  0  0  0  0  0  0  0  0  0
   17.2532   33.7973   18.2155 H   0  0  0  0  0  0  0  0  0  0  0  0
   15.6193   34.2891   18.7152 H   0  0  0  0  0  0  0  0  0  0  0  0
   18.1028   32.2043   14.0122 H   0  0  0  0  0  0  0  0  0  0  0  0
   15.7963   31.7026   12.1600 H   0  0  0  0  0  0  0  0  0  0  0  0
   17.3736   31.5105   10.3356 H   0  0  0  0  0  0  0  0  0  0  0  0
   18.7551   31.7049   11.4243 H   0  0  0  0  0  0  0  0  0  0  0  0
   19.1071   34.0024   12.6527 H   0  0  0  0  0  0  0  0  0  0  0  0
   18.9649   36.4379   12.2938 H   0  0  0  0  0  0  0  0  0  0  0  0
   17.5077   37.3736   10.5381 H   0  0  0  0  0  0  0  0  0  0  0  0
   16.1486   35.9026    9.0887 H   0  0  0  0  0  0  0  0  0  0  0  0
   16.2348   33.4518    9.3765 H   0  0  0  0  0  0  0  0  0  0  0  0
   17.0258   29.5155   11.6676 H   0  0  0  0  0  0  0  0  0  0  0  0
   18.4541   28.8022   13.3108 H   0  0  0  0  0  0  0  0  0  0  0  0
   16.0329   30.0896   14.4919 H   0  0  0  0  0  0  0  0  0  0  0  0
   16.5104   28.4646   13.9642 H   0  0  0  0  0  0  0  0  0  0  0  0
   14.2431   28.8623   15.0423 H   0  0  0  0  0  0  0  0  0  0  0  0
   14.5615   27.4076   14.0754 H   0  0  0  0  0  0  0  0  0  0  0  0
   12.4986   29.0003   12.7718 H   0  0  0  0  0  0  0  0  0  0  0  0
   12.0446   29.9254   15.0120 H   0  0  0  0  0  0  0  0  0  0  0  0
   11.9634   28.2729   15.6788 H   0  0  0  0  0  0  0  0  0  0  0  0
   10.1387   29.4543   13.5468 H   0  0  0  0  0  0  0  0  0  0  0  0
    9.7202   29.1334   15.2494 H   0  0  0  0  0  0  0  0  0  0  0  0
    8.9222   27.3504   13.7142 H   0  0  0  0  0  0  0  0  0  0  0  0
   10.0664   26.7489   14.9407 H   0  0  0  0  0  0  0  0  0  0  0  0
   10.6947   27.4052   12.0280 H   0  0  0  0  0  0  0  0  0  0  0  0
   10.6104   25.7848   12.7658 H   0  0  0  0  0  0  0  0  0  0  0  0
   12.4773   26.3184   14.2351 H   0  0  0  0  0  0  0  0  0  0  0  0
   12.9316   26.5591   12.5304 H   0  0  0  0  0  0  0  0  0  0  0  0
   15.5333   27.7311   11.7109 H   0  0  0  0  0  0  0  0  0  0  0  0
   15.0655   27.3154    9.6189 H   0  0  0  0  0  0  0  0  0  0  0  0
   12.1148   27.8295    9.3597 H   0  0  0  0  0  0  0  0  0  0  0  0
   13.5977   29.4472    7.9702 H   0  0  0  0  0  0  0  0  0  0  0  0
   15.8590   30.2148    7.2967 H   0  0  0  0  0  0  0  0  0  0  0  0
   16.6000   29.0626    8.4325 H   0  0  0  0  0  0  0  0  0  0  0  0
   15.6278   30.4184    9.0373 H   0  0  0  0  0  0  0  0  0  0  0  0
   13.7434   27.1776    6.9496 H   0  0  0  0  0  0  0  0  0  0  0  0
   15.5032   27.1806    7.2002 H   0  0  0  0  0  0  0  0  0  0  0  0
   14.7597   28.3459    6.0807 H   0  0  0  0  0  0  0  0  0  0  0  0
   11.7111   24.2206    9.7177 H   0  0  0  0  0  0  0  0  0  0  0  0
   11.0935   25.4809    8.6271 H   0  0  0  0  0  0  0  0  0  0  0  0
   10.9527   25.6732   10.3963 H   0  0  0  0  0  0  0  0  0  0  0  0
  1  2  1  0  0  0  0
  1 42  1  0  0  0  0
  1 43  1  0  0  0  0
  1 44  1  0  0  0  0
  2  4  1  0  0  0  0
  2  3  2  0  0  0  0
  4  5  1  0  0  0  0
  4 45  1  0  0  0  0
  5  9  1  0  0  0  0
  5  6  1  0  0  0  0
  5 46  1  1  0  0  0
  6  8  1  0  0  0  0
  6  7  1  0  0  0  0
  6 47  1  0  0  0  0
  7 48  1  0  0  0  0
  7 49  1  0  0  0  0
  7 50  1  0  0  0  0
  8 51  1  0  0  0  0
  8 52  1  0  0  0  0
  8 53  1  0  0  0  0
  9 11  1  0  0  0  0
  9 10  2  0  0  0  0
 11 12  1  0  0  0  0
 11 54  1  0  0  0  0
 12 20  1  0  0  0  0
 12 13  1  0  0  0  0
 12 55  1  6  0  0  0
 13 14  1  0  0  0  0
 13 56  1  0  0  0  0
 13 57  1  0  0  0  0
 14 19  2  0  0  0  0
 14 15  1  0  0  0  0
 15 16  2  0  0  0  0
 15 58  1  0  0  0  0
 16 17  1  0  0  0  0
 16 59  1  0  0  0  0
 17 18  2  0  0  0  0
 17 60  1  0  0  0  0
 18 19  1  0  0  0  0
 18 61  1  0  0  0  0
 19 62  1  0  0  0  0
 20 22  1  0  0  0  0
 20 21  1  0  0  0  0
 20 63  1  6  0  0  0
 21 64  1  0  0  0  0
 22 23  1  0  0  0  0
 22 65  1  0  0  0  0
 22 66  1  0  0  0  0
 23 31  1  0  0  0  0
 23 24  1  0  0  0  0
 24 25  1  0  0  0  0
 24 67  1  0  0  0  0
 24 68  1  0  0  0  0
 25 30  1  0  0  0  0
 25 26  1  0  0  0  0
 25 69  1  0  0  0  0
 26 27  1  0  0  0  0
 26 70  1  0  0  0  0
 26 71  1  0  0  0  0
 27 28  1  0  0  0  0
 27 72  1  0  0  0  0
 27 73  1  0  0  0  0
 28 29  1  0  0  0  0
 28 74  1  0  0  0  0
 28 75  1  0  0  0  0
 29 30  1  0  0  0  0
 29 76  1  0  0  0  0
 29 77  1  0  0  0  0
 30 78  1  0  0  0  0
 30 79  1  0  0  0  0
 31 32  1  0  0  0  0
 31 80  1  0  0  0  0
 32 34  1  0  0  0  0
 32 33  2  0  0  0  0
 34 36  1  0  0  0  0
 34 35  1  0  0  0  0
 34 81  1  1  0  0  0
 35 39  1  0  0  0  0
 35 82  1  0  0  0  0
 36 38  1  0  0  0  0
 36 37  1  0  0  0  0
 36 83  1  0  0  0  0
 37 84  1  0  0  0  0
 37 85  1  0  0  0  0
 37 86  1  0  0  0  0
 38 87  1  0  0  0  0
 38 88  1  0  0  0  0
 38 89  1  0  0  0  0
 39 41  1  0  0  0  0
 39 40  2  0  0  0  0
 41 90  1  0  0  0  0
 41 91  1  0  0  0  0
 41 92  1  0  0  0  0
M  END
$$$$
