C20
 OpenBabel04041914563D

 92 93  0  0  1  0  0  0  0  0999 V2000
    6.7749   -7.7656   17.7311 C   0  0  0  0  0  0  0  0  0  0  0  0
    7.1634   -6.3028   17.7487 C   0  0  0  0  0  0  0  0  0  0  0  0
    7.3322   -5.6931   18.7897 O   0  0  0  0  0  0  0  0  0  0  0  0
    7.3383   -5.7388   16.5167 N   0  0  0  0  0  0  0  0  0  0  0  0
    7.7231   -4.3317   16.3186 C   0  0  1  0  0  0  0  0  0  0  0  0
    9.0425   -4.2386   15.5292 C   0  0  0  0  0  0  0  0  0  0  0  0
    9.4431   -2.7879   15.2530 C   0  0  0  0  0  0  0  0  0  0  0  0
   10.1601   -4.9434   16.2884 C   0  0  0  0  0  0  0  0  0  0  0  0
    6.6415   -3.6274   15.5003 C   0  0  0  0  0  0  0  0  0  0  0  0
    6.4926   -3.8261   14.2971 O   0  0  0  0  0  0  0  0  0  0  0  0
    5.8280   -2.7847   16.2064 N   0  0  0  0  0  0  0  0  0  0  0  0
    4.6899   -2.1144   15.5753 C   0  0  1  0  0  0  0  0  0  0  0  0
    3.4024   -2.5998   16.2377 C   0  0  0  0  0  0  0  0  0  0  0  0
    3.2701   -4.1072   16.2851 C   0  0  0  0  0  0  0  0  0  0  0  0
    3.3874   -4.8024   17.5078 C   0  0  0  0  0  0  0  0  0  0  0  0
    3.2152   -6.1879   17.5360 C   0  0  0  0  0  0  0  0  0  0  0  0
    2.9488   -6.8741   16.3522 C   0  0  0  0  0  0  0  0  0  0  0  0
    2.8542   -6.2026   15.1341 C   0  0  0  0  0  0  0  0  0  0  0  0
    3.0249   -4.8196   15.0936 C   0  0  0  0  0  0  0  0  0  0  0  0
    4.8055   -0.5886   15.7024 C   0  0  1  0  0  0  0  0  0  0  0  0
    5.0630   -0.1967   17.0597 O   0  0  0  0  0  0  0  0  0  0  0  0
    5.9355   -0.0618   14.8564 C   0  0  0  0  0  0  0  0  0  0  0  0
    5.6695   -0.2077   13.4205 N   0  0  0  0  0  0  0  0  0  0  0  0
    6.9531    0.1785   12.8400 C   0  0  0  0  0  0  0  0  0  0  0  0
    7.0686    0.7970   11.4585 C   0  0  0  0  0  0  0  0  0  0  0  0
    8.5861    0.7748   11.2239 C   0  0  0  0  0  0  0  0  0  0  0  0
    9.0829    1.7431   10.1816 C   0  0  0  0  0  0  0  0  0  0  0  0
    8.5961    3.1467   10.4849 C   0  0  0  0  0  0  0  0  0  0  0  0
    7.0818    3.1694   10.5305 C   0  0  0  0  0  0  0  0  0  0  0  0
    6.5603    2.2280   11.5835 C   0  0  0  0  0  0  0  0  0  0  0  0
    4.5722    0.5911   13.0539 N   0  0  0  0  0  0  0  0  0  0  0  0
    3.6133    0.1141   12.1748 C   0  0  0  0  0  0  0  0  0  0  0  0
    3.6015   -0.9836   11.6937 O   0  0  0  0  0  0  0  0  0  0  0  0
    2.5673    1.2006   11.7746 C   0  0  1  0  0  0  0  0  0  0  0  0
    2.9910    1.8363   10.5166 N   0  0  0  0  0  0  0  0  0  0  0  0
    1.1693    0.5841   11.6365 C   0  0  0  0  0  0  0  0  0  0  0  0
    0.7804   -0.1543   12.9165 C   0  0  0  0  0  0  0  0  0  0  0  0
    0.1429    1.6780   11.3449 C   0  0  0  0  0  0  0  0  0  0  0  0
    3.2116    3.1803   10.4522 C   0  0  0  0  0  0  0  0  0  0  0  0
    3.0428    3.9139   11.4116 O   0  0  0  0  0  0  0  0  0  0  0  0
    3.7058    3.7241    9.1403 C   0  0  0  0  0  0  0  0  0  0  0  0
    6.6768   -8.1223   18.7617 H   0  0  0  0  0  0  0  0  0  0  0  0
    7.5352   -8.3663   17.2247 H   0  0  0  0  0  0  0  0  0  0  0  0
    5.8153   -7.8915   17.2253 H   0  0  0  0  0  0  0  0  0  0  0  0
    7.1794   -6.3062   15.6956 H   0  0  0  0  0  0  0  0  0  0  0  0
    7.8297   -3.8292   17.2858 H   0  0  0  0  0  0  0  0  0  0  0  0
    8.9219   -4.7330   14.5562 H   0  0  0  0  0  0  0  0  0  0  0  0
   10.3864   -2.7476   14.6950 H   0  0  0  0  0  0  0  0  0  0  0  0
    9.5676   -2.2354   16.1900 H   0  0  0  0  0  0  0  0  0  0  0  0
    8.6792   -2.2834   14.6522 H   0  0  0  0  0  0  0  0  0  0  0  0
    9.8853   -5.9833   16.4849 H   0  0  0  0  0  0  0  0  0  0  0  0
   10.3483   -4.4479   17.2472 H   0  0  0  0  0  0  0  0  0  0  0  0
   11.0873   -4.9426   15.7064 H   0  0  0  0  0  0  0  0  0  0  0  0
    5.9851   -2.6425   17.1955 H   0  0  0  0  0  0  0  0  0  0  0  0
    4.6638   -2.3777   14.5130 H   0  0  0  0  0  0  0  0  0  0  0  0
    2.5520   -2.1789   15.6818 H   0  0  0  0  0  0  0  0  0  0  0  0
    3.3582   -2.1959   17.2590 H   0  0  0  0  0  0  0  0  0  0  0  0
    3.5947   -4.2998   18.4532 H   0  0  0  0  0  0  0  0  0  0  0  0
    3.2828   -6.7399   18.4737 H   0  0  0  0  0  0  0  0  0  0  0  0
    2.8133   -7.9548   16.3748 H   0  0  0  0  0  0  0  0  0  0  0  0
    2.6421   -6.7663   14.2267 H   0  0  0  0  0  0  0  0  0  0  0  0
    2.9494   -4.3192   14.1246 H   0  0  0  0  0  0  0  0  0  0  0  0
    3.8666   -0.1194   15.3813 H   0  0  0  0  0  0  0  0  0  0  0  0
    5.1311    0.7736   17.0870 H   0  0  0  0  0  0  0  0  0  0  0  0
    6.8678   -0.5850   15.1228 H   0  0  0  0  0  0  0  0  0  0  0  0
    6.0960    1.0088   15.0794 H   0  0  0  0  0  0  0  0  0  0  0  0
    7.6189   -0.6944   12.8783 H   0  0  0  0  0  0  0  0  0  0  0  0
    7.4149    0.9330   13.5113 H   0  0  0  0  0  0  0  0  0  0  0  0
    6.5214    0.2231   10.6941 H   0  0  0  0  0  0  0  0  0  0  0  0
    8.8928   -0.2437   10.9635 H   0  0  0  0  0  0  0  0  0  0  0  0
    9.0738    1.0315   12.1788 H   0  0  0  0  0  0  0  0  0  0  0  0
    8.7210    1.4282    9.2012 H   0  0  0  0  0  0  0  0  0  0  0  0
   10.1771    1.7273   10.1743 H   0  0  0  0  0  0  0  0  0  0  0  0
    8.9484    3.8312    9.7109 H   0  0  0  0  0  0  0  0  0  0  0  0
    8.9998    3.4756   11.4517 H   0  0  0  0  0  0  0  0  0  0  0  0
    6.6825    2.8706    9.5602 H   0  0  0  0  0  0  0  0  0  0  0  0
    6.7339    4.1795   10.7628 H   0  0  0  0  0  0  0  0  0  0  0  0
    6.8694    2.6179   12.5611 H   0  0  0  0  0  0  0  0  0  0  0  0
    5.4758    2.2296   11.5547 H   0  0  0  0  0  0  0  0  0  0  0  0
    4.4094    1.4815   13.5075 H   0  0  0  0  0  0  0  0  0  0  0  0
    2.5382    1.9590   12.5628 H   0  0  0  0  0  0  0  0  0  0  0  0
    3.0983    1.2698    9.6867 H   0  0  0  0  0  0  0  0  0  0  0  0
    1.1638   -0.1413   10.8139 H   0  0  0  0  0  0  0  0  0  0  0  0
   -0.2167   -0.5940   12.8179 H   0  0  0  0  0  0  0  0  0  0  0  0
    0.7820    0.5310   13.7710 H   0  0  0  0  0  0  0  0  0  0  0  0
    1.4853   -0.9666   13.1273 H   0  0  0  0  0  0  0  0  0  0  0  0
    0.4044    2.2145   10.4278 H   0  0  0  0  0  0  0  0  0  0  0  0
    0.1041    2.4049   12.1658 H   0  0  0  0  0  0  0  0  0  0  0  0
   -0.8577    1.2530   11.2146 H   0  0  0  0  0  0  0  0  0  0  0  0
    3.8504    4.8033    9.2504 H   0  0  0  0  0  0  0  0  0  0  0  0
    2.9702    3.5383    8.3599 H   0  0  0  0  0  0  0  0  0  0  0  0
    4.6570    3.2659    8.8752 H   0  0  0  0  0  0  0  0  0  0  0  0
  1  2  1  0  0  0  0
  1 42  1  0  0  0  0
  1 43  1  0  0  0  0
  1 44  1  0  0  0  0
  2  4  1  0  0  0  0
  2  3  2  0  0  0  0
  4  5  1  0  0  0  0
  4 45  1  0  0  0  0
  5  9  1  0  0  0  0
  5  6  1  0  0  0  0
  5 46  1  1  0  0  0
  6  8  1  0  0  0  0
  6  7  1  0  0  0  0
  6 47  1  0  0  0  0
  7 48  1  0  0  0  0
  7 49  1  0  0  0  0
  7 50  1  0  0  0  0
  8 51  1  0  0  0  0
  8 52  1  0  0  0  0
  8 53  1  0  0  0  0
  9 11  1  0  0  0  0
  9 10  2  0  0  0  0
 11 12  1  0  0  0  0
 11 54  1  0  0  0  0
 12 20  1  0  0  0  0
 12 13  1  0  0  0  0
 12 55  1  6  0  0  0
 13 14  1  0  0  0  0
 13 56  1  0  0  0  0
 13 57  1  0  0  0  0
 14 19  2  0  0  0  0
 14 15  1  0  0  0  0
 15 16  2  0  0  0  0
 15 58  1  0  0  0  0
 16 17  1  0  0  0  0
 16 59  1  0  0  0  0
 17 18  2  0  0  0  0
 17 60  1  0  0  0  0
 18 19  1  0  0  0  0
 18 61  1  0  0  0  0
 19 62  1  0  0  0  0
 20 22  1  0  0  0  0
 20 21  1  0  0  0  0
 20 63  1  6  0  0  0
 21 64  1  0  0  0  0
 22 23  1  0  0  0  0
 22 65  1  0  0  0  0
 22 66  1  0  0  0  0
 23 31  1  0  0  0  0
 23 24  1  0  0  0  0
 24 25  1  0  0  0  0
 24 67  1  0  0  0  0
 24 68  1  0  0  0  0
 25 30  1  0  0  0  0
 25 26  1  0  0  0  0
 25 69  1  0  0  0  0
 26 27  1  0  0  0  0
 26 70  1  0  0  0  0
 26 71  1  0  0  0  0
 27 28  1  0  0  0  0
 27 72  1  0  0  0  0
 27 73  1  0  0  0  0
 28 29  1  0  0  0  0
 28 74  1  0  0  0  0
 28 75  1  0  0  0  0
 29 30  1  0  0  0  0
 29 76  1  0  0  0  0
 29 77  1  0  0  0  0
 30 78  1  0  0  0  0
 30 79  1  0  0  0  0
 31 32  1  0  0  0  0
 31 80  1  0  0  0  0
 32 34  1  0  0  0  0
 32 33  2  0  0  0  0
 34 36  1  0  0  0  0
 34 35  1  0  0  0  0
 34 81  1  1  0  0  0
 35 39  1  0  0  0  0
 35 82  1  0  0  0  0
 36 38  1  0  0  0  0
 36 37  1  0  0  0  0
 36 83  1  0  0  0  0
 37 84  1  0  0  0  0
 37 85  1  0  0  0  0
 37 86  1  0  0  0  0
 38 87  1  0  0  0  0
 38 88  1  0  0  0  0
 38 89  1  0  0  0  0
 39 41  1  0  0  0  0
 39 40  2  0  0  0  0
 41 90  1  0  0  0  0
 41 91  1  0  0  0  0
 41 92  1  0  0  0  0
M  END
$$$$
