C3P
 OpenBabel04041916453D

 33 34  0  0  1  0  0  0  0  0999 V2000
  -12.9892   47.5432    6.6779 P   0  0  0  0  0  0  0  0  0  0  0  0
  -12.5165   47.8034    8.1028 O   0  0  0  0  0  0  0  0  0  0  0  0
  -11.8851   46.9857    5.8029 O   0  0  0  0  0  0  0  0  0  0  0  0
  -14.3310   46.8378    6.5339 O   0  0  0  0  0  0  0  0  0  0  0  0
  -14.6608   52.9685    6.5448 O   0  0  0  0  0  0  0  0  0  0  0  0
  -13.5982   52.1064    7.0129 C   0  0  0  0  0  0  0  0  0  0  0  0
  -12.9469   51.3987    5.7865 C   0  0  1  0  0  0  0  0  0  0  0  0
  -11.9347   52.1602    5.0777 O   0  0  0  0  0  0  0  0  0  0  0  0
  -12.3623   50.0422    6.1466 C   0  0  1  0  0  0  0  0  0  0  0  0
  -13.3315   49.0306    6.0587 O   0  0  0  0  0  0  0  0  0  0  0  0
  -11.1812   49.8596    5.2446 C   0  0  1  0  0  0  0  0  0  0  0  0
  -11.3108   48.8335    4.2379 O   0  0  0  0  0  0  0  0  0  0  0  0
  -10.7847   51.3008    4.8821 C   0  0  2  0  0  0  0  0  0  0  0  0
   -9.7126   51.8528    5.7291 N   0  3  0  0  0  0  0  0  0  0  0  0
   -8.4381   51.3838    5.5127 C   0  0  0  0  0  0  0  0  0  0  0  0
   -7.4306   51.9677    6.2186 N   0  3  0  0  0  0  0  0  0  0  0  0
   -7.6477   52.9369    7.1696 C   0  0  0  0  0  0  0  0  0  0  0  0
   -8.9804   53.3132    7.3988 C   0  0  0  0  0  0  0  0  0  0  0  0
   -9.9589   52.8292    6.6480 C   0  0  0  0  0  0  0  0  0  0  0  0
   -8.2052   50.4979    4.6681 O   0  0  0  0  0  0  0  0  0  0  0  0
   -6.6756   53.4578    7.8111 N   0  0  0  0  0  0  0  0  0  0  0  0
  -15.0983   53.3687    7.3096 H   0  0  0  0  0  0  0  0  0  0  0  0
  -14.0405   51.3703    7.7012 H   0  0  0  0  0  0  0  0  0  0  0  0
  -12.8963   52.7342    7.5760 H   0  0  0  0  0  0  0  0  0  0  0  0
  -13.7653   51.2917    5.0794 H   0  0  0  0  0  0  0  0  0  0  0  0
  -11.9889   50.0959    7.1640 H   0  0  0  0  0  0  0  0  0  0  0  0
  -10.3591   49.4953    5.8323 H   0  0  0  0  0  0  0  0  0  0  0  0
  -11.4416   47.9955    4.7993 H   0  0  0  0  0  0  0  0  0  0  0  0
  -10.3994   51.3685    3.8523 H   0  0  0  0  0  0  0  0  0  0  0  0
   -6.4895   51.6634    6.0329 H   0  0  0  0  0  0  0  0  0  0  0  0
   -9.1877   54.0889    8.1413 H   0  0  0  0  0  0  0  0  0  0  0  0
  -10.9684   53.1894    6.7724 H   0  0  0  0  0  0  0  0  0  0  0  0
   -6.9945   54.1834    8.5045 H   0  0  0  0  0  0  0  0  0  0  0  0
  1  2  2  0  0  0  0
  1  3  1  0  0  0  0
  1  4  1  0  0  0  0
  1 10  1  0  0  0  0
  5  6  1  0  0  0  0
  5 22  1  0  0  0  0
  6  7  1  0  0  0  0
  6 23  1  0  0  0  0
  6 24  1  0  0  0  0
  7  8  1  0  0  0  0
  7  9  1  0  0  0  0
  7 25  1  6  0  0  0
  8 13  1  0  0  0  0
  9 10  1  0  0  0  0
  9 11  1  0  0  0  0
  9 26  1  1  0  0  0
 11 12  1  0  0  0  0
 11 13  1  0  0  0  0
 11 27  1  1  0  0  0
 12 28  1  0  0  0  0
 13 14  1  0  0  0  0
 13 29  1  6  0  0  0
 14 15  1  0  0  0  0
 14 19  1  0  0  0  0
 15 16  1  0  0  0  0
 15 20  2  0  0  0  0
 16 17  1  0  0  0  0
 16 30  1  0  0  0  0
 17 18  1  0  0  0  0
 17 21  2  0  0  0  0
 18 19  2  0  0  0  0
 18 31  1  0  0  0  0
 19 32  1  0  0  0  0
 21 33  1  0  0  0  0
M  CHG  2  14   1  16   1
M  END
$$$$
