C5P
 OpenBabel04041916433D

 33 34  0  0  1  0  0  0  0  0999 V2000
   10.1927   15.6389   30.0001 O   0  0  0  0  0  0  0  0  0  0  0  0
   11.5487   15.5361   30.6769 P   0  0  0  0  0  0  0  0  0  0  0  0
   11.9188   16.7025   31.5828 O   0  0  0  0  0  0  0  0  0  0  0  0
   11.9056   14.1630   31.2204 O   0  0  0  0  0  0  0  0  0  0  0  0
   12.5864   15.7099   29.4446 O   0  0  0  0  0  0  0  0  0  0  0  0
   12.5613   14.7409   28.4241 C   0  0  0  0  0  0  0  0  0  0  0  0
   13.8127   14.9689   27.6060 C   0  0  1  0  0  0  0  0  0  0  0  0
   13.9716   16.3444   27.2548 O   0  0  0  0  0  0  0  0  0  0  0  0
   15.0292   14.5158   28.4043 C   0  0  1  0  0  0  0  0  0  0  0  0
   15.4010   13.1903   27.9903 O   0  0  0  0  0  0  0  0  0  0  0  0
   16.1145   15.5127   28.0482 C   0  0  1  0  0  0  0  0  0  0  0  0
   17.0022   14.9967   27.0314 O   0  0  0  0  0  0  0  0  0  0  0  0
   15.3417   16.6786   27.4401 C   0  0  2  0  0  0  0  0  0  0  0  0
   15.4741   17.9290   28.1423 N   0  3  0  0  0  0  0  0  0  0  0  0
   16.5027   18.7535   27.7388 C   0  0  0  0  0  0  0  0  0  0  0  0
   16.5038   19.9944   28.3139 N   0  3  0  0  0  0  0  0  0  0  0  0
   15.6266   20.4448   29.2391 C   0  0  0  0  0  0  0  0  0  0  0  0
   14.5875   19.5094   29.6791 C   0  0  0  0  0  0  0  0  0  0  0  0
   14.5708   18.3031   29.1169 C   0  0  0  0  0  0  0  0  0  0  0  0
   17.3711   18.4559   26.9190 O   0  0  0  0  0  0  0  0  0  0  0  0
   15.7865   21.6511   29.6521 N   0  0  0  0  0  0  0  0  0  0  0  0
   11.6821   14.8688   27.7898 H   0  0  0  0  0  0  0  0  0  0  0  0
   12.5820   13.7248   28.8341 H   0  0  0  0  0  0  0  0  0  0  0  0
   13.7476   14.4202   26.6617 H   0  0  0  0  0  0  0  0  0  0  0  0
   14.8424   14.5299   29.4876 H   0  0  0  0  0  0  0  0  0  0  0  0
   15.3431   13.2102   27.0175 H   0  0  0  0  0  0  0  0  0  0  0  0
   16.7284   15.7864   28.9178 H   0  0  0  0  0  0  0  0  0  0  0  0
   17.2825   14.1159   27.3830 H   0  0  0  0  0  0  0  0  0  0  0  0
   15.7092   16.8280   26.4219 H   0  0  0  0  0  0  0  0  0  0  0  0
   17.2105   20.6264   27.9828 H   0  0  0  0  0  0  0  0  0  0  0  0
   13.8557   19.7848   30.4294 H   0  0  0  0  0  0  0  0  0  0  0  0
   13.8005   17.5950   29.4076 H   0  0  0  0  0  0  0  0  0  0  0  0
   15.0800   21.8453   30.3625 H   0  0  0  0  0  0  0  0  0  0  0  0
  1  2  2  0  0  0  0
  2  3  1  0  0  0  0
  2  4  1  0  0  0  0
  2  5  1  0  0  0  0
  5  6  1  0  0  0  0
  6  7  1  0  0  0  0
  6 22  1  0  0  0  0
  6 23  1  0  0  0  0
  7  8  1  0  0  0  0
  7  9  1  0  0  0  0
  7 24  1  6  0  0  0
  8 13  1  0  0  0  0
  9 10  1  0  0  0  0
  9 11  1  0  0  0  0
  9 25  1  1  0  0  0
 10 26  1  0  0  0  0
 11 12  1  0  0  0  0
 11 13  1  0  0  0  0
 11 27  1  1  0  0  0
 12 28  1  0  0  0  0
 13 14  1  0  0  0  0
 13 29  1  6  0  0  0
 14 15  1  0  0  0  0
 14 19  1  0  0  0  0
 15 16  1  0  0  0  0
 15 20  2  0  0  0  0
 16 17  1  0  0  0  0
 16 30  1  0  0  0  0
 17 18  1  0  0  0  0
 17 21  2  0  0  0  0
 18 19  2  0  0  0  0
 18 31  1  0  0  0  0
 19 32  1  0  0  0  0
 21 33  1  0  0  0  0
M  CHG  2  14   1  16   1
M  END
$$$$
