CBB
 OpenBabel04041915343D

 57 60  0  0  1  0  0  0  0  0999 V2000
    3.8235    9.9112   26.0960 C   0  0  0  0  0  0  0  0  0  0  0  0
    4.8910    9.0372   25.9148 C   0  0  0  0  0  0  0  0  0  0  0  0
    5.2941    8.7516   24.5993 C   0  0  2  0  0  0  0  0  0  0  0  0
    4.6487    9.2940   23.4916 C   0  0  2  0  0  0  0  0  0  0  0  0
    3.5749   10.1862   23.6935 C   0  0  0  0  0  0  0  0  0  0  0  0
    3.1694   10.4785   25.0020 C   0  0  0  0  0  0  0  0  0  0  0  0
    6.3049    7.9484   24.1097 N   0  3  2  0  0  0  0  0  0  0  0  0
    6.2964    7.9157   22.7295 C   0  0  2  0  0  0  0  0  0  0  0  0
    5.2738    8.7622   22.3342 C   0  0  0  0  0  0  0  0  0  0  0  0
    7.1635    7.1269   24.9401 C   0  0  0  0  0  0  0  0  0  0  0  0
    8.4896    7.7457   25.3020 C   0  0  2  0  0  0  0  0  0  0  0  0
    9.0946    8.8464   24.6927 C   0  0  0  0  0  0  0  0  0  0  0  0
   10.3442    9.2882   25.1333 C   0  0  0  0  0  0  0  0  0  0  0  0
   10.9883    8.6610   26.2073 C   0  0  0  0  0  0  0  0  0  0  0  0
   10.3972    7.5594   26.8428 C   0  0  2  0  0  0  0  0  0  0  0  0
    9.1766    7.1016   26.3351 C   0  0  0  0  0  0  0  0  0  0  0  0
   10.9753    6.8748   28.0187 C   0  0  0  0  0  0  0  0  0  0  0  0
   12.2603    6.9353   28.2791 N   0  0  0  0  0  0  0  0  0  0  0  0
   10.1874    6.1704   28.8127 N   0  0  0  0  0  0  0  0  0  0  0  0
    7.2043    7.1288   21.9268 C   0  0  0  0  0  0  0  0  0  0  0  0
    6.6353    6.8785   20.7166 O   0  0  0  0  0  0  0  0  0  0  0  0
    7.4492    6.1192   19.8273 C   0  0  0  0  0  0  0  0  0  0  0  0
    7.4654    4.6232   20.0794 C   0  0  2  0  0  0  0  0  0  0  0  0
    6.7602    3.9921   21.1106 C   0  0  0  0  0  0  0  0  0  0  0  0
    6.8726    2.6126   21.3051 C   0  0  0  0  0  0  0  0  0  0  0  0
    7.6795    1.8429   20.4653 C   0  0  0  0  0  0  0  0  0  0  0  0
    8.3831    2.4493   19.4161 C   0  0  1  0  0  0  0  0  0  0  0  0
    8.2657    3.8360   19.2381 C   0  0  0  0  0  0  0  0  0  0  0  0
    9.2646    1.6898   18.5168 C   0  0  0  0  0  0  0  0  0  0  0  0
    9.1787    1.8879   17.2194 N   0  0  0  0  0  0  0  0  0  0  0  0
   10.1523    0.8664   19.0241 N   0  0  0  0  0  0  0  0  0  0  0  0
    8.2867    6.6938   22.2881 O   0  0  0  0  0  0  0  0  0  0  0  0
    3.4730   10.1430   27.1000 H   0  0  0  0  0  0  0  0  0  0  0  0
    5.3837    8.6047   26.7801 H   0  0  0  0  0  0  0  0  0  0  0  0
    3.0601   10.6305   22.8520 H   0  0  0  0  0  0  0  0  0  0  0  0
    2.3358   11.1594   25.1610 H   0  0  0  0  0  0  0  0  0  0  0  0
    5.0008    8.9759   21.3083 H   0  0  0  0  0  0  0  0  0  0  0  0
    7.3114    6.1579   24.4501 H   0  0  0  0  0  0  0  0  0  0  0  0
    6.6069    6.9072   25.8619 H   0  0  0  0  0  0  0  0  0  0  0  0
    8.6185    9.3736   23.8660 H   0  0  0  0  0  0  0  0  0  0  0  0
   10.8133   10.1432   24.6397 H   0  0  0  0  0  0  0  0  0  0  0  0
   11.9425    9.0698   26.5295 H   0  0  0  0  0  0  0  0  0  0  0  0
    8.7155    6.1989   26.7389 H   0  0  0  0  0  0  0  0  0  0  0  0
   12.6648    6.4809   29.0866 H   0  0  0  0  0  0  0  0  0  0  0  0
    9.1819    6.1676   28.6842 H   0  0  0  0  0  0  0  0  0  0  0  0
   10.5316    5.6337   29.5959 H   0  0  0  0  0  0  0  0  0  0  0  0
    8.4765    6.5069   19.8321 H   0  0  0  0  0  0  0  0  0  0  0  0
    7.0498    6.2910   18.8212 H   0  0  0  0  0  0  0  0  0  0  0  0
    6.1216    4.5607   21.7838 H   0  0  0  0  0  0  0  0  0  0  0  0
    6.3236    2.1409   22.1207 H   0  0  0  0  0  0  0  0  0  0  0  0
    7.7321    0.7689   20.6352 H   0  0  0  0  0  0  0  0  0  0  0  0
    8.8286    4.3312   18.4481 H   0  0  0  0  0  0  0  0  0  0  0  0
    9.7780    1.4198   16.5533 H   0  0  0  0  0  0  0  0  0  0  0  0
   10.2237    0.7467   20.0278 H   0  0  0  0  0  0  0  0  0  0  0  0
   10.8175    0.3656   18.4455 H   0  0  0  0  0  0  0  0  0  0  0  0
   12.8921    7.4511   27.6791 H   0  0  0  0  0  0  0  0  0  0  0  0
    8.4719    2.5116   16.8435 H   0  0  0  0  0  0  0  0  0  0  0  0
  1  2  1  0  0  0  0
  1  6  1  0  0  0  0
  1 33  1  0  0  0  0
  2 34  1  0  0  0  0
  3  2  1  6  0  0  0
  3  4  1  0  0  0  0
  3  7  1  0  0  0  0
  4  5  1  1  0  0  0
  4  9  1  0  0  0  0
  5  6  1  0  0  0  0
  5 35  1  0  0  0  0
  6 36  1  0  0  0  0
  7  8  1  0  0  0  0
  7 10  1  1  0  0  0
  8  9  1  0  0  0  0
  8 20  1  1  0  0  0
  9 37  1  0  0  0  0
 10 38  1  0  0  0  0
 10 39  1  0  0  0  0
 11 10  1  6  0  0  0
 11 12  1  0  0  0  0
 11 16  1  0  0  0  0
 12 13  1  0  0  0  0
 12 40  1  0  0  0  0
 13 14  1  0  0  0  0
 13 41  1  0  0  0  0
 14 15  1  0  0  0  0
 14 42  1  0  0  0  0
 15 16  1  0  0  0  0
 15 17  1  1  0  0  0
 16 43  1  0  0  0  0
 17 18  2  0  0  0  0
 17 19  1  0  0  0  0
 18 44  1  0  0  0  0
 18 56  1  0  0  0  0
 19 45  1  0  0  0  0
 19 46  1  0  0  0  0
 20 21  1  0  0  0  0
 20 32  2  0  0  0  0
 21 22  1  0  0  0  0
 22 47  1  0  0  0  0
 22 48  1  0  0  0  0
 23 22  1  1  0  0  0
 23 24  1  0  0  0  0
 23 28  1  0  0  0  0
 24 25  1  0  0  0  0
 24 49  1  0  0  0  0
 25 26  1  0  0  0  0
 25 50  1  0  0  0  0
 26 27  1  0  0  0  0
 26 51  1  0  0  0  0
 27 28  1  0  0  0  0
 27 29  1  1  0  0  0
 28 52  1  0  0  0  0
 29 30  2  0  0  0  0
 29 31  1  0  0  0  0
 30 53  1  0  0  0  0
 30 57  1  0  0  0  0
 31 54  1  0  0  0  0
 31 55  1  0  0  0  0
M  CHG  1   7   1
M  END
$$$$
