CDA
 OpenBabel04041915483D

 50 52  0  0  0  0  0  0  0  0999 V2000
   21.0317  -16.5611   25.1640 N   0  0  0  0  0  0  0  0  0  0  0  0
   19.9749  -15.9453   25.7637 C   0  0  0  0  0  0  0  0  0  0  0  0
   20.0580  -14.6324   26.2306 C   0  0  0  0  0  0  0  0  0  0  0  0
   21.2417  -13.9217   26.0477 C   0  0  0  0  0  0  0  0  0  0  0  0
   22.3100  -14.5316   25.4027 C   0  0  0  0  0  0  0  0  0  0  0  0
   22.1587  -15.8408   24.9828 C   0  0  0  0  0  0  0  0  0  0  0  0
   18.6872  -16.7356   25.9311 C   0  0  0  0  0  0  0  0  0  0  0  0
   18.0861  -17.1923   24.5845 C   0  0  0  0  0  0  0  0  0  0  0  0
   17.7109  -16.0290   26.5963 F   0  0  0  0  0  0  0  0  0  0  0  0
   18.8739  -17.8535   26.7045 F   0  0  0  0  0  0  0  0  0  0  0  0
   17.4427  -16.1224   23.8188 N   0  0  0  0  0  0  0  0  0  0  0  0
   18.1105  -15.3750   22.8673 C   0  0  0  0  0  0  0  0  0  0  0  0
   17.4831  -14.0163   22.4813 C   0  0  0  0  0  0  0  0  0  0  0  0
   18.0905  -13.3457   21.4211 N   0  3  0  0  0  0  0  0  0  0  0  0
   19.2724  -13.8433   20.8803 C   0  0  0  0  0  0  0  0  0  0  0  0
   19.7772  -14.9964   21.3542 C   0  0  0  0  0  0  0  0  0  0  0  0
   19.2177  -15.7859   22.3201 N   0  0  0  0  0  0  0  0  0  0  0  0
   16.5236  -13.6123   23.1323 O   0  0  0  0  0  0  0  0  0  0  0  0
   19.9900  -13.0992   19.7902 C   0  0  0  0  0  0  0  0  0  0  0  0
   17.4881  -12.0739   21.0401 C   0  0  0  0  0  0  0  0  0  0  0  0
   16.0696  -12.2692   20.4831 C   0  0  0  0  0  0  0  0  0  0  0  0
   15.1664  -11.3016   20.8727 N   0  0  0  0  0  0  0  0  0  0  0  0
   15.7817  -13.1809   19.7103 O   0  0  0  0  0  0  0  0  0  0  0  0
   13.7623  -11.3750   20.5107 C   0  0  0  0  0  0  0  0  0  0  0  0
   12.8600  -11.3948   21.7230 C   0  0  0  0  0  0  0  0  0  0  0  0
   11.8812  -12.3727   21.8457 C   0  0  0  0  0  0  0  0  0  0  0  0
   11.0228  -12.3536   22.9387 C   0  0  0  0  0  0  0  0  0  0  0  0
   11.1586  -11.3425   23.8835 C   0  0  0  0  0  0  0  0  0  0  0  0
   13.0107  -10.3937   22.6428 N   0  0  0  0  0  0  0  0  0  0  0  0
   11.7324  -13.3279   20.9171 F   0  0  0  0  0  0  0  0  0  0  0  0
   12.1544  -10.3959   23.6938 C   0  0  0  0  0  0  0  0  0  0  0  0
   19.2144  -14.1641   26.7298 H   0  0  0  0  0  0  0  0  0  0  0  0
   21.3272  -12.8986   26.4025 H   0  0  0  0  0  0  0  0  0  0  0  0
   23.2401  -14.0012   25.2329 H   0  0  0  0  0  0  0  0  0  0  0  0
   22.9625  -16.3628   24.4719 H   0  0  0  0  0  0  0  0  0  0  0  0
   17.3047  -17.9291   24.8057 H   0  0  0  0  0  0  0  0  0  0  0  0
   18.8285  -17.7284   23.9815 H   0  0  0  0  0  0  0  0  0  0  0  0
   16.6677  -15.6425   24.2750 H   0  0  0  0  0  0  0  0  0  0  0  0
   20.7070  -15.3908   20.9504 H   0  0  0  0  0  0  0  0  0  0  0  0
   20.8991  -13.6203   19.4698 H   0  0  0  0  0  0  0  0  0  0  0  0
   20.2965  -12.1061   20.1341 H   0  0  0  0  0  0  0  0  0  0  0  0
   19.3516  -12.9947   18.9066 H   0  0  0  0  0  0  0  0  0  0  0  0
   18.0629  -11.5647   20.2613 H   0  0  0  0  0  0  0  0  0  0  0  0
   17.4662  -11.4251   21.9226 H   0  0  0  0  0  0  0  0  0  0  0  0
   15.3923  -10.6645   21.6268 H   0  0  0  0  0  0  0  0  0  0  0  0
   13.5784  -12.2391   19.8649 H   0  0  0  0  0  0  0  0  0  0  0  0
   13.5369  -10.4719   19.9310 H   0  0  0  0  0  0  0  0  0  0  0  0
   10.2589  -13.1157   23.0387 H   0  0  0  0  0  0  0  0  0  0  0  0
   10.5007  -11.2928   24.7442 H   0  0  0  0  0  0  0  0  0  0  0  0
   12.2890   -9.5837   24.4036 H   0  0  0  0  0  0  0  0  0  0  0  0
  1  2  2  0  0  0  0
  1  6  1  0  0  0  0
  2  3  1  0  0  0  0
  2  7  1  0  0  0  0
  3  4  2  0  0  0  0
  3 32  1  0  0  0  0
  4  5  1  0  0  0  0
  4 33  1  0  0  0  0
  5  6  2  0  0  0  0
  5 34  1  0  0  0  0
  6 35  1  0  0  0  0
  7  8  1  0  0  0  0
  7  9  1  0  0  0  0
  7 10  1  0  0  0  0
  8 11  1  0  0  0  0
  8 36  1  0  0  0  0
  8 37  1  0  0  0  0
 11 12  1  0  0  0  0
 11 38  1  0  0  0  0
 12 13  1  0  0  0  0
 12 17  2  0  0  0  0
 13 14  1  0  0  0  0
 13 18  2  0  0  0  0
 14 15  1  0  0  0  0
 14 20  1  0  0  0  0
 15 16  2  0  0  0  0
 15 19  1  0  0  0  0
 16 17  1  0  0  0  0
 16 39  1  0  0  0  0
 19 40  1  0  0  0  0
 19 41  1  0  0  0  0
 19 42  1  0  0  0  0
 20 21  1  0  0  0  0
 20 43  1  0  0  0  0
 20 44  1  0  0  0  0
 21 22  1  0  0  0  0
 21 23  2  0  0  0  0
 22 24  1  0  0  0  0
 22 45  1  0  0  0  0
 24 25  1  0  0  0  0
 24 46  1  0  0  0  0
 24 47  1  0  0  0  0
 25 26  2  0  0  0  0
 25 29  1  0  0  0  0
 26 27  1  0  0  0  0
 26 30  1  0  0  0  0
 27 28  2  0  0  0  0
 27 48  1  0  0  0  0
 28 31  1  0  0  0  0
 28 49  1  0  0  0  0
 29 31  2  0  0  0  0
 31 50  1  0  0  0  0
M  CHG  1  14   1
M  END
$$$$
