CHT
 OpenBabel04041916083D

 21 20  0  0  0  0  0  0  0  0999 V2000
   32.9361   23.0717   13.1288 C   0  0  0  0  0  0  0  0  0  0  0  0
   34.2500   22.3059   12.8872 C   0  0  0  0  0  0  0  0  0  0  0  0
   34.5686   19.9185   12.1141 C   0  0  0  0  0  0  0  0  0  0  0  0
   33.0217   21.3227   10.8191 C   0  0  0  0  0  0  0  0  0  0  0  0
   35.4581   21.7739   10.7465 C   0  0  0  0  0  0  0  0  0  0  0  0
   31.9816   22.2076   13.7380 O   0  0  0  0  0  0  0  0  0  0  0  0
   34.2957   21.3517   11.6465 N   0  3  0  0  0  0  0  0  0  0  0  0
   32.5009   23.4928   12.2197 H   0  0  0  0  0  0  0  0  0  0  0  0
   33.1342   23.9030   13.8141 H   0  0  0  0  0  0  0  0  0  0  0  0
   34.4744   21.6903   13.7661 H   0  0  0  0  0  0  0  0  0  0  0  0
   35.0648   23.0276   12.7629 H   0  0  0  0  0  0  0  0  0  0  0  0
   34.6291   19.2767   11.2383 H   0  0  0  0  0  0  0  0  0  0  0  0
   33.7455   19.6030   12.7608 H   0  0  0  0  0  0  0  0  0  0  0  0
   35.5190   19.9039   12.6575 H   0  0  0  0  0  0  0  0  0  0  0  0
   32.8208   22.3307   10.4457 H   0  0  0  0  0  0  0  0  0  0  0  0
   32.2029   20.9464   11.4377 H   0  0  0  0  0  0  0  0  0  0  0  0
   33.1782   20.6509    9.9674 H   0  0  0  0  0  0  0  0  0  0  0  0
   35.2749   22.7972   10.4093 H   0  0  0  0  0  0  0  0  0  0  0  0
   35.5040   21.0908    9.8926 H   0  0  0  0  0  0  0  0  0  0  0  0
   36.3828   21.7155   11.3295 H   0  0  0  0  0  0  0  0  0  0  0  0
   31.2284   22.7618   14.0334 H   0  0  0  0  0  0  0  0  0  0  0  0
  1  2  1  0  0  0  0
  1  6  1  0  0  0  0
  1  8  1  0  0  0  0
  1  9  1  0  0  0  0
  2  7  1  0  0  0  0
  2 10  1  0  0  0  0
  2 11  1  0  0  0  0
  3  7  1  0  0  0  0
  3 12  1  0  0  0  0
  3 13  1  0  0  0  0
  3 14  1  0  0  0  0
  4  7  1  0  0  0  0
  4 15  1  0  0  0  0
  4 16  1  0  0  0  0
  4 17  1  0  0  0  0
  5  7  1  0  0  0  0
  5 18  1  0  0  0  0
  5 19  1  0  0  0  0
  5 20  1  0  0  0  0
  6 21  1  0  0  0  0
M  CHG  1   7   1
M  END
$$$$
