CK7
 OpenBabel04041916283D

 35 37  0  0  0  0  0  0  0  0999 V2000
   14.8166   -5.2482   10.2517 N   0  0  0  0  0  0  0  0  0  0  0  0
   14.7929   -5.9952   11.3678 C   0  0  0  0  0  0  0  0  0  0  0  0
   15.4802   -5.8607   12.4716 N   0  0  0  0  0  0  0  0  0  0  0  0
   15.1117   -6.8378   13.4169 C   0  0  0  0  0  0  0  0  0  0  0  0
   15.8417   -6.8092   14.7313 C   0  0  0  0  0  0  0  0  0  0  0  0
   13.7417   -7.3060   11.3433 S   0  0  0  0  0  0  0  0  0  0  0  0
   14.1171   -7.7229   12.9774 C   0  0  0  0  0  0  0  0  0  0  0  0
   13.3183   -8.8345   13.5515 C   0  0  0  0  0  0  0  0  0  0  0  0
   12.4287   -9.3790   12.6920 N   0  0  0  0  0  0  0  0  0  0  0  0
   13.3643   -9.2512   14.8454 C   0  0  0  0  0  0  0  0  0  0  0  0
   12.4414  -10.2278   15.1824 C   0  0  0  0  0  0  0  0  0  0  0  0
   11.5463  -10.7721   14.3344 N   0  0  0  0  0  0  0  0  0  0  0  0
   11.5611  -10.3118   13.0828 C   0  0  0  0  0  0  0  0  0  0  0  0
   10.5868  -10.7934   12.1890 N   0  0  0  0  0  0  0  0  0  0  0  0
   10.0732  -10.2090   11.0132 C   0  0  0  0  0  0  0  0  0  0  0  0
    8.8375  -10.6272   10.4894 C   0  0  0  0  0  0  0  0  0  0  0  0
   10.6970   -9.1427   10.3591 C   0  0  0  0  0  0  0  0  0  0  0  0
   10.1160   -8.5132    9.2593 C   0  0  0  0  0  0  0  0  0  0  0  0
   10.7984   -7.3975    8.6390 N   0  0  0  0  0  0  0  0  0  0  0  0
   10.4249   -6.2588    8.9562 O   0  0  0  0  0  0  0  0  0  0  0  0
   11.6845   -7.6635    7.8182 O   0  0  0  0  0  0  0  0  0  0  0  0
    8.8977   -8.9243    8.7469 C   0  0  0  0  0  0  0  0  0  0  0  0
    8.2572   -9.9918    9.3726 C   0  0  0  0  0  0  0  0  0  0  0  0
   15.3935   -4.4246   10.1580 H   0  0  0  0  0  0  0  0  0  0  0  0
   14.1876   -5.4706    9.4910 H   0  0  0  0  0  0  0  0  0  0  0  0
   15.5416   -7.5953   15.4262 H   0  0  0  0  0  0  0  0  0  0  0  0
   15.6700   -5.8562   15.2403 H   0  0  0  0  0  0  0  0  0  0  0  0
   16.9214   -6.9249   14.5886 H   0  0  0  0  0  0  0  0  0  0  0  0
   14.0356   -8.8576   15.5848 H   0  0  0  0  0  0  0  0  0  0  0  0
   12.3782  -10.5668   16.2143 H   0  0  0  0  0  0  0  0  0  0  0  0
   10.1255  -11.6043   12.5623 H   0  0  0  0  0  0  0  0  0  0  0  0
    8.2858  -11.4370   10.9617 H   0  0  0  0  0  0  0  0  0  0  0  0
   11.6494   -8.7790   10.7020 H   0  0  0  0  0  0  0  0  0  0  0  0
    8.4572   -8.4284    7.8880 H   0  0  0  0  0  0  0  0  0  0  0  0
    7.2900  -10.3221    8.9995 H   0  0  0  0  0  0  0  0  0  0  0  0
  1  2  1  0  0  0  0
  1 24  1  0  0  0  0
  1 25  1  0  0  0  0
  2  6  1  0  0  0  0
  2  3  2  0  0  0  0
  3  4  1  0  0  0  0
  4  7  2  0  0  0  0
  4  5  1  0  0  0  0
  5 26  1  0  0  0  0
  5 27  1  0  0  0  0
  5 28  1  0  0  0  0
  6  7  1  0  0  0  0
  7  8  1  0  0  0  0
  8 10  2  0  0  0  0
  8  9  1  0  0  0  0
  9 13  2  0  0  0  0
 10 11  1  0  0  0  0
 10 29  1  0  0  0  0
 11 12  2  0  0  0  0
 11 30  1  0  0  0  0
 12 13  1  0  0  0  0
 13 14  1  0  0  0  0
 14 15  1  0  0  0  0
 14 31  1  0  0  0  0
 15 17  2  0  0  0  0
 15 16  1  0  0  0  0
 16 23  2  0  0  0  0
 16 32  1  0  0  0  0
 17 18  1  0  0  0  0
 17 33  1  0  0  0  0
 18 22  2  0  0  0  0
 18 19  1  0  0  0  0
 19 21  2  0  0  0  0
 19 20  2  0  0  0  0
 22 23  1  0  0  0  0
 22 34  1  0  0  0  0
 23 35  1  0  0  0  0
M  END
$$$$
