CLQ
 OpenBabel04041914123D

 50 51  0  0  1  0  0  0  0  0999 V2000
   35.7015   11.6655   16.1430 N   0  3  0  0  0  0  0  0  0  0  0  0
   35.1834   10.5375   16.6039 C   0  0  0  0  0  0  0  0  0  0  0  0
   34.8171   10.4250   17.9472 C   0  0  0  0  0  0  0  0  0  0  0  0
   34.9996   11.4824   18.8424 C   0  0  0  0  0  0  0  0  0  0  0  0
   35.5783   12.7071   18.3305 C   0  0  0  0  0  0  0  0  0  0  0  0
   35.8395   13.8910   19.1156 C   0  0  0  0  0  0  0  0  0  0  0  0
   36.3736   15.0528   18.5404 C   0  0  0  0  0  0  0  0  0  0  0  0
   36.6647   15.0812   17.1843 C   0  0  0  0  0  0  0  0  0  0  0  0
   36.4455   13.9485   16.3797 C   0  0  0  0  0  0  0  0  0  0  0  0
   35.9137   12.7782   16.9385 C   0  0  0  0  0  0  0  0  0  0  0  0
   34.7071   11.3649   20.1983 N   0  0  0  0  0  0  0  0  0  0  0  0
   34.2206   10.1644   20.9044 C   0  0  1  0  0  0  0  0  0  0  0  0
   35.2974    9.0732   20.8846 C   0  0  0  0  0  0  0  0  0  0  0  0
   36.6130    9.3971   21.5803 C   0  0  0  0  0  0  0  0  0  0  0  0
   37.7291    8.4606   21.1026 C   0  0  0  0  0  0  0  0  0  0  0  0
   37.4185    6.9848   21.3733 N   0  3  0  0  0  0  0  0  0  0  0  0
   38.2882    6.0600   20.5143 C   0  0  0  0  0  0  0  0  0  0  0  0
   38.0615    4.5729   20.7204 C   0  0  0  0  0  0  0  0  0  0  0  0
   37.3086    6.6717   22.8543 C   0  0  0  0  0  0  0  0  0  0  0  0
   38.6374    6.5454   23.5461 C   0  0  0  0  0  0  0  0  0  0  0  0
   33.8120   10.5120   22.3394 C   0  0  0  0  0  0  0  0  0  0  0  0
   37.2966   16.5169   16.4690 Cl  0  0  0  0  0  0  0  0  0  0  0  0
   35.0563    9.7017   15.9065 H   0  0  0  0  0  0  0  0  0  0  0  0
   34.3780    9.4720   18.2555 H   0  0  0  0  0  0  0  0  0  0  0  0
   35.6168   13.9326   20.1813 H   0  0  0  0  0  0  0  0  0  0  0  0
   36.5555   15.9512   19.1621 H   0  0  0  0  0  0  0  0  0  0  0  0
   36.6911   14.0089   15.3210 H   0  0  0  0  0  0  0  0  0  0  0  0
   34.7178   12.2098   20.7554 H   0  0  0  0  0  0  0  0  0  0  0  0
   33.3255    9.7603   20.4162 H   0  0  0  0  0  0  0  0  0  0  0  0
   35.5371    8.8438   19.8466 H   0  0  0  0  0  0  0  0  0  0  0  0
   34.8909    8.1583   21.3272 H   0  0  0  0  0  0  0  0  0  0  0  0
   36.4894    9.3266   22.6632 H   0  0  0  0  0  0  0  0  0  0  0  0
   36.9137   10.4279   21.3646 H   0  0  0  0  0  0  0  0  0  0  0  0
   38.6727    8.7094   21.5948 H   0  0  0  0  0  0  0  0  0  0  0  0
   37.8374    8.5684   20.0158 H   0  0  0  0  0  0  0  0  0  0  0  0
   39.3330    6.3026   20.7175 H   0  0  0  0  0  0  0  0  0  0  0  0
   38.0467    6.2951   19.4709 H   0  0  0  0  0  0  0  0  0  0  0  0
   38.7255    4.0118   20.0465 H   0  0  0  0  0  0  0  0  0  0  0  0
   37.0351    4.2759   20.4954 H   0  0  0  0  0  0  0  0  0  0  0  0
   38.3094    4.2629   21.7366 H   0  0  0  0  0  0  0  0  0  0  0  0
   36.7373    5.7467   22.9448 H   0  0  0  0  0  0  0  0  0  0  0  0
   36.7351    7.4687   23.3313 H   0  0  0  0  0  0  0  0  0  0  0  0
   38.4583    6.3189   24.6037 H   0  0  0  0  0  0  0  0  0  0  0  0
   39.2068    7.4729   23.4821 H   0  0  0  0  0  0  0  0  0  0  0  0
   39.2172    5.7298   23.1197 H   0  0  0  0  0  0  0  0  0  0  0  0
   33.4725    9.6208   22.8847 H   0  0  0  0  0  0  0  0  0  0  0  0
   32.9886   11.2343   22.3358 H   0  0  0  0  0  0  0  0  0  0  0  0
   34.6448   10.9536   22.8956 H   0  0  0  0  0  0  0  0  0  0  0  0
   35.9452   11.7390   15.1465 H   0  0  0  0  0  0  0  0  0  0  0  0
   36.4638    6.8382   21.0215 H   0  0  0  0  0  0  0  0  0  0  0  0
  1 10  2  0  0  0  0
  1  2  1  0  0  0  0
  1 49  1  0  0  0  0
  2  3  2  0  0  0  0
  2 23  1  0  0  0  0
  3  4  1  0  0  0  0
  3 24  1  0  0  0  0
  4 11  1  0  0  0  0
  4  5  2  0  0  0  0
  5 10  1  0  0  0  0
  5  6  1  0  0  0  0
  6  7  2  0  0  0  0
  6 25  1  0  0  0  0
  7  8  1  0  0  0  0
  7 26  1  0  0  0  0
  8  9  2  0  0  0  0
  8 22  1  0  0  0  0
  9 10  1  0  0  0  0
  9 27  1  0  0  0  0
 11 12  1  0  0  0  0
 11 28  1  0  0  0  0
 12 21  1  0  0  0  0
 12 13  1  0  0  0  0
 12 29  1  6  0  0  0
 13 14  1  0  0  0  0
 13 30  1  0  0  0  0
 13 31  1  0  0  0  0
 14 15  1  0  0  0  0
 14 32  1  0  0  0  0
 14 33  1  0  0  0  0
 15 16  1  0  0  0  0
 15 34  1  0  0  0  0
 15 35  1  0  0  0  0
 16 19  1  0  0  0  0
 16 17  1  0  0  0  0
 16 50  1  0  0  0  0
 17 18  1  0  0  0  0
 17 36  1  0  0  0  0
 17 37  1  0  0  0  0
 18 38  1  0  0  0  0
 18 39  1  0  0  0  0
 18 40  1  0  0  0  0
 19 20  1  0  0  0  0
 19 41  1  0  0  0  0
 19 42  1  0  0  0  0
 20 43  1  0  0  0  0
 20 44  1  0  0  0  0
 20 45  1  0  0  0  0
 21 46  1  0  0  0  0
 21 47  1  0  0  0  0
 21 48  1  0  0  0  0
M  CHG  2   1   1  16   1
M  END
$$$$
