CLR
 OpenBabel04041917573D

 74 77  0  0  1  0  0  0  0  0999 V2000
   57.7417   36.0562   33.4327 C   0  0  0  0  0  0  0  0  0  0  0  0
   57.7783   36.1591   34.9543 C   0  0  0  0  0  0  0  0  0  0  0  0
   56.3781   36.0140   35.5416 C   0  0  1  0  0  0  0  0  0  0  0  0
   55.8006   34.6560   35.1585 C   0  0  0  0  0  0  0  0  0  0  0  0
   55.8283   34.4297   33.6634 C   0  0  0  0  0  0  0  0  0  0  0  0
   54.7388   34.0239   33.0475 C   0  0  0  0  0  0  0  0  0  0  0  0
   54.6098   33.7949   31.5820 C   0  0  0  0  0  0  0  0  0  0  0  0
   55.9600   33.7329   30.8915 C   0  0  2  0  0  0  0  0  0  0  0  0
   56.8969   34.8505   31.3909 C   0  0  1  0  0  0  0  0  0  0  0  0
   57.1476   34.7265   32.9281 C   0  0  1  0  0  0  0  0  0  0  0  0
   58.1988   34.9018   30.5663 C   0  0  0  0  0  0  0  0  0  0  0  0
   57.9437   34.9503   29.0664 C   0  0  0  0  0  0  0  0  0  0  0  0
   57.0512   33.7963   28.6151 C   0  0  1  0  0  0  0  0  0  0  0  0
   55.7470   33.8841   29.4043 C   0  0  1  0  0  0  0  0  0  0  0  0
   54.8781   32.8523   28.7162 C   0  0  0  0  0  0  0  0  0  0  0  0
   55.1239   33.1794   27.2506 C   0  0  0  0  0  0  0  0  0  0  0  0
   56.4815   33.9352   27.1893 C   0  0  2  0  0  0  0  0  0  0  0  0
   57.7582   32.4446   28.8211 C   0  0  0  0  0  0  0  0  0  0  0  0
   58.1282   33.5851   33.2127 C   0  0  0  0  0  0  0  0  0  0  0  0
   57.4087   33.4651   26.0412 C   0  0  2  0  0  0  0  0  0  0  0  0
   58.6166   34.3144   25.9473 C   0  0  0  0  0  0  0  0  0  0  0  0
   56.6361   33.5357   24.7341 C   0  0  0  0  0  0  0  0  0  0  0  0
   57.3223   32.8622   23.5542 C   0  0  0  0  0  0  0  0  0  0  0  0
   56.5080   32.9301   22.2631 C   0  0  0  0  0  0  0  0  0  0  0  0
   55.2929   31.9935   22.2632 C   0  0  0  0  0  0  0  0  0  0  0  0
   54.6580   31.9224   20.8843 C   0  0  0  0  0  0  0  0  0  0  0  0
   54.2298   32.4449   23.2464 C   0  0  0  0  0  0  0  0  0  0  0  0
   56.4318   36.1482   36.9625 O   0  0  0  0  0  0  0  0  0  0  0  0
   58.7616   36.1784   33.0488 H   0  0  0  0  0  0  0  0  0  0  0  0
   57.1351   36.8856   33.0462 H   0  0  0  0  0  0  0  0  0  0  0  0
   58.2095   37.1186   35.2490 H   0  0  0  0  0  0  0  0  0  0  0  0
   58.4265   35.3751   35.3640 H   0  0  0  0  0  0  0  0  0  0  0  0
   55.7349   36.8142   35.1549 H   0  0  0  0  0  0  0  0  0  0  0  0
   54.7642   34.5980   35.5181 H   0  0  0  0  0  0  0  0  0  0  0  0
   56.3566   33.8648   35.6700 H   0  0  0  0  0  0  0  0  0  0  0  0
   53.8155   33.8211   33.6095 H   0  0  0  0  0  0  0  0  0  0  0  0
   54.0044   34.6166   31.1782 H   0  0  0  0  0  0  0  0  0  0  0  0
   54.0728   32.8517   31.4358 H   0  0  0  0  0  0  0  0  0  0  0  0
   56.4124   32.7608   31.1057 H   0  0  0  0  0  0  0  0  0  0  0  0
   56.3872   35.8107   31.2242 H   0  0  0  0  0  0  0  0  0  0  0  0
   58.8032   34.0181   30.7780 H   0  0  0  0  0  0  0  0  0  0  0  0
   58.7838   35.7750   30.8588 H   0  0  0  0  0  0  0  0  0  0  0  0
   58.9076   34.9238   28.5626 H   0  0  0  0  0  0  0  0  0  0  0  0
   57.4644   35.9013   28.8145 H   0  0  0  0  0  0  0  0  0  0  0  0
   55.2968   34.8756   29.2282 H   0  0  0  0  0  0  0  0  0  0  0  0
   53.8274   32.9224   28.9856 H   0  0  0  0  0  0  0  0  0  0  0  0
   55.1979   31.8303   28.9458 H   0  0  0  0  0  0  0  0  0  0  0  0
   54.3281   33.8323   26.8712 H   0  0  0  0  0  0  0  0  0  0  0  0
   55.1445   32.2651   26.6534 H   0  0  0  0  0  0  0  0  0  0  0  0
   56.2628   34.9997   27.0236 H   0  0  0  0  0  0  0  0  0  0  0  0
   58.1625   32.3490   29.8271 H   0  0  0  0  0  0  0  0  0  0  0  0
   58.5821   32.3084   28.1228 H   0  0  0  0  0  0  0  0  0  0  0  0
   57.0802   31.6040   28.6772 H   0  0  0  0  0  0  0  0  0  0  0  0
   58.3210   33.4961   34.2803 H   0  0  0  0  0  0  0  0  0  0  0  0
   59.0958   33.7531   32.7276 H   0  0  0  0  0  0  0  0  0  0  0  0
   57.7277   32.6324   32.8595 H   0  0  0  0  0  0  0  0  0  0  0  0
   57.6578   32.4113   26.2156 H   0  0  0  0  0  0  0  0  0  0  0  0
   59.2557   33.9808   25.1336 H   0  0  0  0  0  0  0  0  0  0  0  0
   59.2036   34.2406   26.8453 H   0  0  0  0  0  0  0  0  0  0  0  0
   58.3443   35.3612   25.7777 H   0  0  0  0  0  0  0  0  0  0  0  0
   56.3586   34.5781   24.4726 H   0  0  0  0  0  0  0  0  0  0  0  0
   55.7518   33.0624   24.9931 H   0  0  0  0  0  0  0  0  0  0  0  0
   57.5344   31.8155   23.7986 H   0  0  0  0  0  0  0  0  0  0  0  0
   58.2724   33.3685   23.3862 H   0  0  0  0  0  0  0  0  0  0  0  0
   57.1729   32.6368   21.4263 H   0  0  0  0  0  0  0  0  0  0  0  0
   56.1942   33.9630   22.0839 H   0  0  0  0  0  0  0  0  0  0  0  0
   55.6260   30.9952   22.5423 H   0  0  0  0  0  0  0  0  0  0  0  0
   53.7793   31.2637   20.9085 H   0  0  0  0  0  0  0  0  0  0  0  0
   55.3657   31.5210   20.1579 H   0  0  0  0  0  0  0  0  0  0  0  0
   54.3308   32.9136   20.5453 H   0  0  0  0  0  0  0  0  0  0  0  0
   54.5307   32.4020   24.2456 H   0  0  0  0  0  0  0  0  0  0  0  0
   53.3841   31.7416   23.2858 H   0  0  0  0  0  0  0  0  0  0  0  0
   53.8489   33.4509   23.0289 H   0  0  0  0  0  0  0  0  0  0  0  0
   56.9998   35.4424   37.3188 H   0  0  0  0  0  0  0  0  0  0  0  0
  1  2  1  0  0  0  0
  1 10  1  0  0  0  0
  1 29  1  0  0  0  0
  1 30  1  0  0  0  0
  2  3  1  0  0  0  0
  2 31  1  0  0  0  0
  2 32  1  0  0  0  0
  3  4  1  0  0  0  0
  3 28  1  0  0  0  0
  3 33  1  6  0  0  0
  4  5  1  0  0  0  0
  4 34  1  0  0  0  0
  4 35  1  0  0  0  0
  5  6  2  0  0  0  0
  5 10  1  0  0  0  0
  6  7  1  0  0  0  0
  6 36  1  0  0  0  0
  7  8  1  0  0  0  0
  7 37  1  0  0  0  0
  7 38  1  0  0  0  0
  8  9  1  0  0  0  0
  8 14  1  0  0  0  0
  8 39  1  1  0  0  0
  9 10  1  0  0  0  0
  9 11  1  0  0  0  0
  9 40  1  6  0  0  0
 10 19  1  1  0  0  0
 11 12  1  0  0  0  0
 11 41  1  0  0  0  0
 11 42  1  0  0  0  0
 12 13  1  0  0  0  0
 12 43  1  0  0  0  0
 12 44  1  0  0  0  0
 13 14  1  0  0  0  0
 13 17  1  0  0  0  0
 13 18  1  1  0  0  0
 14 15  1  0  0  0  0
 14 45  1  6  0  0  0
 15 16  1  0  0  0  0
 15 46  1  0  0  0  0
 15 47  1  0  0  0  0
 16 17  1  0  0  0  0
 16 48  1  0  0  0  0
 16 49  1  0  0  0  0
 17 20  1  0  0  0  0
 17 50  1  6  0  0  0
 18 51  1  0  0  0  0
 18 52  1  0  0  0  0
 18 53  1  0  0  0  0
 19 54  1  0  0  0  0
 19 55  1  0  0  0  0
 19 56  1  0  0  0  0
 20 21  1  0  0  0  0
 20 22  1  0  0  0  0
 20 57  1  1  0  0  0
 21 58  1  0  0  0  0
 21 59  1  0  0  0  0
 21 60  1  0  0  0  0
 22 23  1  0  0  0  0
 22 61  1  0  0  0  0
 22 62  1  0  0  0  0
 23 24  1  0  0  0  0
 23 63  1  0  0  0  0
 23 64  1  0  0  0  0
 24 25  1  0  0  0  0
 24 65  1  0  0  0  0
 24 66  1  0  0  0  0
 25 26  1  0  0  0  0
 25 27  1  0  0  0  0
 25 67  1  0  0  0  0
 26 68  1  0  0  0  0
 26 69  1  0  0  0  0
 26 70  1  0  0  0  0
 27 71  1  0  0  0  0
 27 72  1  0  0  0  0
 27 73  1  0  0  0  0
 28 74  1  0  0  0  0
M  END
$$$$
