CMB
 OpenBabel04041915353D

 55 58  0  0  1  0  0  0  0  0999 V2000
    3.9123    9.7108   25.8041 C   0  0  0  0  0  0  0  0  0  0  0  0
    5.0221    8.9471   25.4590 C   0  0  0  0  0  0  0  0  0  0  0  0
    5.3100    8.7047   24.1051 C   0  0  2  0  0  0  0  0  0  0  0  0
    4.5458    9.2506   23.0745 C   0  0  2  0  0  0  0  0  0  0  0  0
    3.4214   10.0351   23.4237 C   0  0  1  0  0  0  0  0  0  0  0  0
    3.1006   10.2340   24.7888 C   0  0  0  0  0  0  0  0  0  0  0  0
    6.2845    7.9118   23.5297 N   0  3  2  0  0  0  0  0  0  0  0  0
    6.1526    7.9688   22.1432 C   0  0  1  0  0  0  0  0  0  0  0  0
    5.1254    8.8490   21.8367 C   0  0  0  0  0  0  0  0  0  0  0  0
    2.5489   10.6699   22.3847 C   0  0  0  0  0  0  0  0  0  0  0  0
    7.0085    7.2299   21.2380 C   0  0  0  0  0  0  0  0  0  0  0  0
    6.4375    6.8849   20.0360 N   0  0  0  0  0  0  0  0  0  0  0  0
    7.2233    6.1448   19.0714 C   0  0  0  0  0  0  0  0  0  0  0  0
    7.5149    4.6910   19.4158 C   0  0  2  0  0  0  0  0  0  0  0  0
    7.1563    7.0309   24.3054 C   0  0  0  0  0  0  0  0  0  0  0  0
    8.4497    7.6560   24.7680 C   0  0  2  0  0  0  0  0  0  0  0  0
    9.1534    8.6498   24.0878 C   0  0  0  0  0  0  0  0  0  0  0  0
   10.4369    9.0313   24.5015 C   0  0  0  0  0  0  0  0  0  0  0  0
   11.0070    8.4223   25.6225 C   0  0  0  0  0  0  0  0  0  0  0  0
   10.2798    7.4774   26.3607 C   0  0  2  0  0  0  0  0  0  0  0  0
    9.0188    7.1046   25.9041 C   0  0  0  0  0  0  0  0  0  0  0  0
    8.4844    3.9949   18.6607 C   0  0  0  0  0  0  0  0  0  0  0  0
    8.7033    2.6257   18.8563 C   0  0  1  0  0  0  0  0  0  0  0  0
    7.9837    1.9384   19.8360 C   0  0  0  0  0  0  0  0  0  0  0  0
    7.0255    2.6168   20.6000 C   0  0  1  0  0  0  0  0  0  0  0  0
    6.8038    3.9850   20.3995 C   0  0  0  0  0  0  0  0  0  0  0  0
   10.7505    6.8438   27.5924 C   0  0  0  0  0  0  0  0  0  0  0  0
   11.9959    6.8871   27.9700 N   0  0  0  0  0  0  0  0  0  0  0  0
    9.8223    1.7898   17.8328 Cl  0  0  0  0  0  0  0  0  0  0  0  0
    6.0631    1.7693   21.7607 Cl  0  0  0  0  0  0  0  0  0  0  0  0
    8.1137    6.8850   21.5382 O   0  0  0  0  0  0  0  0  0  0  0  0
    9.8542    6.2019   28.3190 N   0  0  0  0  0  0  0  0  0  0  0  0
    3.6671    9.8887   26.8457 H   0  0  0  0  0  0  0  0  0  0  0  0
    5.6489    8.5295   26.2326 H   0  0  0  0  0  0  0  0  0  0  0  0
    2.2178   10.8153   25.0540 H   0  0  0  0  0  0  0  0  0  0  0  0
    4.8005    9.1395   20.8332 H   0  0  0  0  0  0  0  0  0  0  0  0
    2.9173   10.4193   21.3869 H   0  0  0  0  0  0  0  0  0  0  0  0
    2.5729   11.7565   22.5059 H   0  0  0  0  0  0  0  0  0  0  0  0
    1.5216   10.3071   22.4839 H   0  0  0  0  0  0  0  0  0  0  0  0
    5.4991    7.1804   19.8202 H   0  0  0  0  0  0  0  0  0  0  0  0
    8.1740    6.6738   18.9451 H   0  0  0  0  0  0  0  0  0  0  0  0
    6.6696    6.1667   18.1271 H   0  0  0  0  0  0  0  0  0  0  0  0
    7.3964    6.1224   23.7382 H   0  0  0  0  0  0  0  0  0  0  0  0
    6.6046    6.6953   25.2068 H   0  0  0  0  0  0  0  0  0  0  0  0
    8.7008    9.1246   23.2203 H   0  0  0  0  0  0  0  0  0  0  0  0
   10.9835    9.7934   23.9388 H   0  0  0  0  0  0  0  0  0  0  0  0
   12.0077    8.7062   25.9190 H   0  0  0  0  0  0  0  0  0  0  0  0
    8.4298    6.3459   26.4189 H   0  0  0  0  0  0  0  0  0  0  0  0
    9.0588    4.5306   17.9044 H   0  0  0  0  0  0  0  0  0  0  0  0
    8.1590    0.8783   19.9947 H   0  0  0  0  0  0  0  0  0  0  0  0
    6.0685    4.5088   21.0035 H   0  0  0  0  0  0  0  0  0  0  0  0
   12.3141    6.4184   28.8080 H   0  0  0  0  0  0  0  0  0  0  0  0
    8.8808    6.1841   28.0608 H   0  0  0  0  0  0  0  0  0  0  0  0
   10.0801    5.7096   29.1568 H   0  0  0  0  0  0  0  0  0  0  0  0
   12.6991    7.3788   27.4222 H   0  0  0  0  0  0  0  0  0  0  0  0
  1  2  1  0  0  0  0
  1  6  1  0  0  0  0
  1 33  1  0  0  0  0
  2 34  1  0  0  0  0
  3  2  1  1  0  0  0
  3  4  1  0  0  0  0
  3  7  1  0  0  0  0
  4  5  1  0  0  0  0
  4  9  1  6  0  0  0
  5  6  1  0  0  0  0
  5 10  1  1  0  0  0
  6 35  1  0  0  0  0
  7  8  1  0  0  0  0
  7 15  1  1  0  0  0
  8  9  1  0  0  0  0
  8 11  1  6  0  0  0
  9 36  1  0  0  0  0
 10 37  1  0  0  0  0
 10 38  1  0  0  0  0
 10 39  1  0  0  0  0
 11 12  1  0  0  0  0
 11 31  2  0  0  0  0
 12 13  1  0  0  0  0
 12 40  1  0  0  0  0
 13 41  1  0  0  0  0
 13 42  1  0  0  0  0
 14 13  1  6  0  0  0
 14 22  1  0  0  0  0
 14 26  1  0  0  0  0
 15 43  1  0  0  0  0
 15 44  1  0  0  0  0
 16 15  1  6  0  0  0
 16 17  1  0  0  0  0
 16 21  1  0  0  0  0
 17 18  1  0  0  0  0
 17 45  1  0  0  0  0
 18 19  1  0  0  0  0
 18 46  1  0  0  0  0
 19 20  1  0  0  0  0
 19 47  1  0  0  0  0
 20 21  1  0  0  0  0
 20 27  1  1  0  0  0
 21 48  1  0  0  0  0
 22 23  1  0  0  0  0
 22 49  1  0  0  0  0
 23 24  1  0  0  0  0
 23 29  1  6  0  0  0
 24 25  1  0  0  0  0
 24 50  1  0  0  0  0
 25 26  1  0  0  0  0
 25 30  1  6  0  0  0
 26 51  1  0  0  0  0
 27 28  2  0  0  0  0
 27 32  1  0  0  0  0
 28 52  1  0  0  0  0
 28 55  1  0  0  0  0
 32 53  1  0  0  0  0
 32 54  1  0  0  0  0
M  CHG  1   7   1
M  END
$$$$
