CMG
 OpenBabel04041914213D

 35 37  0  0  0  0  0  0  0  0999 V2000
    2.4572   28.9639    7.3252 N   0  0  0  0  0  0  0  0  0  0  0  0
    2.9607   30.0166    6.6222 C   0  0  0  0  0  0  0  0  0  0  0  0
    2.4398   31.2459    6.5534 N   0  0  0  0  0  0  0  0  0  0  0  0
    1.3195   31.3844    7.3179 C   0  0  0  0  0  0  0  0  0  0  0  0
    0.7233   30.4445    8.0548 C   0  0  0  0  0  0  0  0  0  0  0  0
    1.3206   29.1724    8.0599 C   0  0  0  0  0  0  0  0  0  0  0  0
    0.7616   28.1718    8.8153 O   0  0  0  0  0  0  0  0  0  0  0  0
    1.6728   27.1483    9.1214 C   0  0  0  0  0  0  0  0  0  0  0  0
   -0.4178   31.0012    8.6962 N   0  0  0  0  0  0  0  0  0  0  0  0
   -0.4817   32.2759    8.2853 C   0  0  0  0  0  0  0  0  0  0  0  0
    0.6117   32.5598    7.4622 N   0  3  0  0  0  0  0  0  0  0  0  0
    4.1280   29.9491    5.8822 N   0  0  0  0  0  0  0  0  0  0  0  0
    1.0093   26.2563   10.1701 C   0  0  0  0  0  0  0  0  0  0  0  0
   -0.2724   25.6214    9.5875 C   0  0  0  0  0  0  0  0  0  0  0  0
   -0.7993   24.5642   10.5605 C   0  0  0  0  0  0  0  0  0  0  0  0
    0.1733   23.3967   10.3844 C   0  0  0  0  0  0  0  0  0  0  0  0
    1.3752   23.9687   11.1387 C   0  0  0  0  0  0  0  0  0  0  0  0
    1.9047   25.0263   10.1886 C   0  0  0  0  0  0  0  0  0  0  0  0
    2.6414   27.5391    9.4739 H   0  0  0  0  0  0  0  0  0  0  0  0
    1.8785   26.5308    8.2293 H   0  0  0  0  0  0  0  0  0  0  0  0
   -1.2588   32.9761    8.5539 H   0  0  0  0  0  0  0  0  0  0  0  0
    0.8262   33.4315    7.0659 H   0  0  0  0  0  0  0  0  0  0  0  0
    4.6736   29.1280    5.7992 H   0  0  0  0  0  0  0  0  0  0  0  0
    4.4010   30.8198    5.4358 H   0  0  0  0  0  0  0  0  0  0  0  0
    0.8350   26.7647   11.1641 H   0  0  0  0  0  0  0  0  0  0  0  0
    0.0446   25.0912    8.6595 H   0  0  0  0  0  0  0  0  0  0  0  0
   -1.0216   26.3227    9.2902 H   0  0  0  0  0  0  0  0  0  0  0  0
   -1.8348   24.3094   10.3710 H   0  0  0  0  0  0  0  0  0  0  0  0
   -0.7382   24.9506   11.5962 H   0  0  0  0  0  0  0  0  0  0  0  0
    0.4007   23.2261    9.3026 H   0  0  0  0  0  0  0  0  0  0  0  0
   -0.2031   22.4418   10.7528 H   0  0  0  0  0  0  0  0  0  0  0  0
    2.1379   23.2404   11.3838 H   0  0  0  0  0  0  0  0  0  0  0  0
    1.0596   24.4397   12.0925 H   0  0  0  0  0  0  0  0  0  0  0  0
    2.9354   25.3007   10.3403 H   0  0  0  0  0  0  0  0  0  0  0  0
    1.8447   24.6261    9.1534 H   0  0  0  0  0  0  0  0  0  0  0  0
  1  6  2  0  0  0  0
  1  2  1  0  0  0  0
  2 12  1  0  0  0  0
  2  3  2  0  0  0  0
  3  4  1  0  0  0  0
  4 11  1  0  0  0  0
  4  5  2  0  0  0  0
  5  9  1  0  0  0  0
  5  6  1  0  0  0  0
  6  7  1  0  0  0  0
  7  8  1  0  0  0  0
  8 13  1  0  0  0  0
  8 19  1  0  0  0  0
  8 20  1  0  0  0  0
  9 10  1  0  0  0  0
 10 11  2  0  0  0  0
 10 21  1  0  0  0  0
 11 22  1  0  0  0  0
 12 23  1  0  0  0  0
 12 24  1  0  0  0  0
 13 18  1  0  0  0  0
 13 14  1  0  0  0  0
 13 25  1  0  0  0  0
 14 15  1  0  0  0  0
 14 26  1  0  0  0  0
 14 27  1  0  0  0  0
 15 16  1  0  0  0  0
 15 28  1  0  0  0  0
 15 29  1  0  0  0  0
 16 17  1  0  0  0  0
 16 30  1  0  0  0  0
 16 31  1  0  0  0  0
 17 18  1  0  0  0  0
 17 32  1  0  0  0  0
 17 33  1  0  0  0  0
 18 34  1  0  0  0  0
 18 35  1  0  0  0  0
M  CHG  1  11   1
M  END
$$$$
