COC
 OpenBabel04041915033D

 44 46  0  0  1  0  0  0  0  0999 V2000
   40.3710    4.8777   50.1075 C   0  0  0  0  0  0  0  0  0  0  0  0
   39.6553    4.2411   49.0404 O   0  0  0  0  0  0  0  0  0  0  0  0
   40.1145    4.4286   47.7804 C   0  0  0  0  0  0  0  0  0  0  0  0
   41.2588    4.7643   47.4614 O   0  0  0  0  0  0  0  0  0  0  0  0
   38.9495    4.1968   46.7810 C   0  0  2  0  0  0  0  0  0  0  0  0
   39.4234    3.4076   45.5464 C   0  0  2  0  0  0  0  0  0  0  0  0
   40.4916    4.2425   44.8617 N   0  3  1  0  0  0  0  0  0  0  0  0
   41.3765    3.4599   43.9329 C   0  0  0  0  0  0  0  0  0  0  0  0
   38.3640    3.2538   44.4317 C   0  0  0  0  0  0  0  0  0  0  0  0
   38.5346    4.4878   43.5286 C   0  0  0  0  0  0  0  0  0  0  0  0
   39.6594    5.2995   44.1784 C   0  0  1  0  0  0  0  0  0  0  0  0
   39.1479    6.2437   45.2854 C   0  0  0  0  0  0  0  0  0  0  0  0
   38.2683    5.5095   46.3331 C   0  0  2  0  0  0  0  0  0  0  0  0
   37.9761    6.3806   47.4596 O   0  0  0  0  0  0  0  0  0  0  0  0
   36.9220    6.0947   48.2822 C   0  0  0  0  0  0  0  0  0  0  0  0
   36.0485    5.2562   48.0145 O   0  0  0  0  0  0  0  0  0  0  0  0
   36.9776    6.8597   49.5815 C   0  0  0  0  0  0  0  0  0  0  0  0
   36.0343    6.5952   50.5949 C   0  0  0  0  0  0  0  0  0  0  0  0
   36.0720    7.2998   51.8080 C   0  0  0  0  0  0  0  0  0  0  0  0
   37.0457    8.2671   52.0324 C   0  0  0  0  0  0  0  0  0  0  0  0
   37.9875    8.5338   51.0396 C   0  0  0  0  0  0  0  0  0  0  0  0
   37.9548    7.8342   49.8224 C   0  0  0  0  0  0  0  0  0  0  0  0
   39.8787    4.6076   51.0488 H   0  0  0  0  0  0  0  0  0  0  0  0
   40.3135    5.9640   49.9856 H   0  0  0  0  0  0  0  0  0  0  0  0
   41.4135    4.5570   50.1419 H   0  0  0  0  0  0  0  0  0  0  0  0
   38.1994    3.6004   47.3151 H   0  0  0  0  0  0  0  0  0  0  0  0
   39.8525    2.4445   45.8212 H   0  0  0  0  0  0  0  0  0  0  0  0
   42.1274    4.1361   43.5224 H   0  0  0  0  0  0  0  0  0  0  0  0
   40.7557    3.0522   43.1390 H   0  0  0  0  0  0  0  0  0  0  0  0
   41.8510    2.6555   44.4976 H   0  0  0  0  0  0  0  0  0  0  0  0
   37.3559    3.2027   44.8546 H   0  0  0  0  0  0  0  0  0  0  0  0
   38.5251    2.3260   43.8564 H   0  0  0  0  0  0  0  0  0  0  0  0
   38.8001    4.1949   42.4998 H   0  0  0  0  0  0  0  0  0  0  0  0
   37.6162    5.0801   43.4744 H   0  0  0  0  0  0  0  0  0  0  0  0
   40.2821    5.8179   43.4464 H   0  0  0  0  0  0  0  0  0  0  0  0
   38.5576    7.0413   44.8154 H   0  0  0  0  0  0  0  0  0  0  0  0
   39.9927    6.7246   45.8009 H   0  0  0  0  0  0  0  0  0  0  0  0
   37.3307    5.2547   45.8199 H   0  0  0  0  0  0  0  0  0  0  0  0
   35.2622    5.8420   50.4436 H   0  0  0  0  0  0  0  0  0  0  0  0
   35.3379    7.1036   52.5953 H   0  0  0  0  0  0  0  0  0  0  0  0
   37.0677    8.8095   52.9776 H   0  0  0  0  0  0  0  0  0  0  0  0
   38.7441    9.2929   51.2228 H   0  0  0  0  0  0  0  0  0  0  0  0
   38.6971    8.0613   49.0637 H   0  0  0  0  0  0  0  0  0  0  0  0
   41.1047    4.6756   45.5837 H   0  0  0  0  0  0  0  0  0  0  0  0
  1  2  1  0  0  0  0
  1 23  1  0  0  0  0
  1 24  1  0  0  0  0
  1 25  1  0  0  0  0
  2  3  1  0  0  0  0
  3  5  1  0  0  0  0
  3  4  2  0  0  0  0
  5 13  1  0  0  0  0
  5  6  1  0  0  0  0
  5 26  1  1  0  0  0
  6  9  1  0  0  0  0
  6  7  1  0  0  0  0
  6 27  1  1  0  0  0
  7 11  1  0  0  0  0
  7  8  1  0  0  0  0
  7 44  1  1  0  0  0
  8 28  1  0  0  0  0
  8 29  1  0  0  0  0
  8 30  1  0  0  0  0
  9 10  1  0  0  0  0
  9 31  1  0  0  0  0
  9 32  1  0  0  0  0
 10 11  1  0  0  0  0
 10 33  1  0  0  0  0
 10 34  1  0  0  0  0
 11 12  1  0  0  0  0
 11 35  1  6  0  0  0
 12 13  1  0  0  0  0
 12 36  1  0  0  0  0
 12 37  1  0  0  0  0
 13 14  1  0  0  0  0
 13 38  1  6  0  0  0
 14 15  1  0  0  0  0
 15 17  1  0  0  0  0
 15 16  2  0  0  0  0
 17 22  2  0  0  0  0
 17 18  1  0  0  0  0
 18 19  2  0  0  0  0
 18 39  1  0  0  0  0
 19 20  1  0  0  0  0
 19 40  1  0  0  0  0
 20 21  2  0  0  0  0
 20 41  1  0  0  0  0
 21 22  1  0  0  0  0
 21 42  1  0  0  0  0
 22 43  1  0  0  0  0
M  CHG  1   7   1
M  END
$$$$
