COC
 OpenBabel04041916323D

 44 46  0  0  1  0  0  0  0  0999 V2000
   26.3450   -4.1054   26.7483 C   0  0  0  0  0  0  0  0  0  0  0  0
   25.6291   -2.9030   26.4524 O   0  0  0  0  0  0  0  0  0  0  0  0
   24.3570   -3.0521   26.0214 C   0  0  0  0  0  0  0  0  0  0  0  0
   23.6242   -4.0276   26.1833 O   0  0  0  0  0  0  0  0  0  0  0  0
   23.9448   -1.8563   25.2037 C   0  0  2  0  0  0  0  0  0  0  0  0
   22.5811   -1.3347   25.6801 C   0  0  2  0  0  0  0  0  0  0  0  0
   21.5235   -2.3786   25.3540 N   0  3  1  0  0  0  0  0  0  0  0  0
   20.2475   -2.2479   26.1344 C   0  0  0  0  0  0  0  0  0  0  0  0
   22.1096   -0.1290   24.8530 C   0  0  0  0  0  0  0  0  0  0  0  0
   21.3344   -0.7155   23.6650 C   0  0  0  0  0  0  0  0  0  0  0  0
   21.3791   -2.2325   23.8560 C   0  0  1  0  0  0  0  0  0  0  0  0
   22.6293   -2.8688   23.2319 C   0  0  0  0  0  0  0  0  0  0  0  0
   23.9442   -2.2102   23.7016 C   0  0  2  0  0  0  0  0  0  0  0  0
   25.0386   -3.0747   23.3112 O   0  0  0  0  0  0  0  0  0  0  0  0
   26.2663   -2.4884   23.2244 C   0  0  0  0  0  0  0  0  0  0  0  0
   26.4872   -1.3225   23.5022 O   0  0  0  0  0  0  0  0  0  0  0  0
   27.3105   -3.4657   22.7996 C   0  0  0  0  0  0  0  0  0  0  0  0
   28.6618   -3.0937   22.9056 C   0  0  0  0  0  0  0  0  0  0  0  0
   29.6690   -3.9803   22.5070 C   0  0  0  0  0  0  0  0  0  0  0  0
   29.3395   -5.2321   22.0006 C   0  0  0  0  0  0  0  0  0  0  0  0
   28.0005   -5.6084   21.8931 C   0  0  0  0  0  0  0  0  0  0  0  0
   26.9899   -4.7312   22.2921 C   0  0  0  0  0  0  0  0  0  0  0  0
   27.3168   -3.8163   27.1586 H   0  0  0  0  0  0  0  0  0  0  0  0
   26.5184   -4.6456   25.8132 H   0  0  0  0  0  0  0  0  0  0  0  0
   25.8217   -4.7330   27.4722 H   0  0  0  0  0  0  0  0  0  0  0  0
   24.6869   -1.0690   25.3869 H   0  0  0  0  0  0  0  0  0  0  0  0
   22.5656   -1.1461   26.7599 H   0  0  0  0  0  0  0  0  0  0  0  0
   19.5986   -3.0807   25.8537 H   0  0  0  0  0  0  0  0  0  0  0  0
   19.7716   -1.2915   25.9054 H   0  0  0  0  0  0  0  0  0  0  0  0
   20.4980   -2.3089   27.1973 H   0  0  0  0  0  0  0  0  0  0  0  0
   22.9397    0.5059   24.5245 H   0  0  0  0  0  0  0  0  0  0  0  0
   21.4410    0.5049   25.4473 H   0  0  0  0  0  0  0  0  0  0  0  0
   21.7565   -0.4001   22.7040 H   0  0  0  0  0  0  0  0  0  0  0  0
   20.2996   -0.3542   23.6886 H   0  0  0  0  0  0  0  0  0  0  0  0
   20.4647   -2.7365   23.5310 H   0  0  0  0  0  0  0  0  0  0  0  0
   22.5694   -2.7909   22.1377 H   0  0  0  0  0  0  0  0  0  0  0  0
   22.6450   -3.9449   23.4456 H   0  0  0  0  0  0  0  0  0  0  0  0
   24.0434   -1.2788   23.1307 H   0  0  0  0  0  0  0  0  0  0  0  0
   28.9382   -2.1155   23.2935 H   0  0  0  0  0  0  0  0  0  0  0  0
   30.7151   -3.6855   22.5870 H   0  0  0  0  0  0  0  0  0  0  0  0
   30.1252   -5.9167   21.6837 H   0  0  0  0  0  0  0  0  0  0  0  0
   27.7479   -6.5866   21.4894 H   0  0  0  0  0  0  0  0  0  0  0  0
   25.9576   -5.0461   22.1880 H   0  0  0  0  0  0  0  0  0  0  0  0
   21.8918   -3.3241   25.5951 H   0  0  0  0  0  0  0  0  0  0  0  0
  1  2  1  0  0  0  0
  1 23  1  0  0  0  0
  1 24  1  0  0  0  0
  1 25  1  0  0  0  0
  2  3  1  0  0  0  0
  3  4  2  0  0  0  0
  3  5  1  0  0  0  0
  5  6  1  0  0  0  0
  5 13  1  0  0  0  0
  5 26  1  1  0  0  0
  6  7  1  0  0  0  0
  6  9  1  0  0  0  0
  6 27  1  1  0  0  0
  7  8  1  0  0  0  0
  7 11  1  0  0  0  0
  7 44  1  1  0  0  0
  8 28  1  0  0  0  0
  8 29  1  0  0  0  0
  8 30  1  0  0  0  0
  9 10  1  0  0  0  0
  9 31  1  0  0  0  0
  9 32  1  0  0  0  0
 10 11  1  0  0  0  0
 10 33  1  0  0  0  0
 10 34  1  0  0  0  0
 11 12  1  0  0  0  0
 11 35  1  6  0  0  0
 12 13  1  0  0  0  0
 12 36  1  0  0  0  0
 12 37  1  0  0  0  0
 13 14  1  0  0  0  0
 13 38  1  6  0  0  0
 14 15  1  0  0  0  0
 15 16  2  0  0  0  0
 15 17  1  0  0  0  0
 17 18  2  0  0  0  0
 17 22  1  0  0  0  0
 18 19  1  0  0  0  0
 18 39  1  0  0  0  0
 19 20  2  0  0  0  0
 19 40  1  0  0  0  0
 20 21  1  0  0  0  0
 20 41  1  0  0  0  0
 21 22  2  0  0  0  0
 21 42  1  0  0  0  0
 22 43  1  0  0  0  0
M  CHG  1   7   1
M  END
$$$$
