COL
 OpenBabel04041914483D

 25 26  0  0  0  0  0  0  0  0999 V2000
   14.2431   45.0302   16.9497 S   0  0  0  0  0  0  0  0  0  0  0  0
   13.9228   45.5508   18.6755 C   0  0  0  0  0  0  0  0  0  0  0  0
   12.4561   45.6243   18.9661 C   0  0  0  0  0  0  0  0  0  0  0  0
   11.3872   45.2823   18.1743 C   0  0  0  0  0  0  0  0  0  0  0  0
   11.4649   44.6562   16.8272 C   0  0  0  0  0  0  0  0  0  0  0  0
   12.7842   43.9273   16.6990 C   0  0  0  0  0  0  0  0  0  0  0  0
   11.9757   46.2199   20.4754 S   0  0  0  0  0  0  0  0  0  0  0  0
   10.3499   46.0843   20.0529 C   0  0  0  0  0  0  0  0  0  0  0  0
   10.1285   45.5627   18.8124 C   0  0  0  0  0  0  0  0  0  0  0  0
    8.7613   45.4143   18.2291 C   0  0  0  0  0  0  0  0  0  0  0  0
    7.7793   45.4378   19.0118 O   0  0  0  0  0  0  0  0  0  0  0  0
    8.6762   45.3044   16.9602 O   0  0  0  0  0  0  0  0  0  0  0  0
    9.3426   46.4909   20.8602 N   0  0  0  0  0  0  0  0  0  0  0  0
    9.4577   47.1406   22.0473 C   0  0  0  0  0  0  0  0  0  0  0  0
    8.0970   47.5577   22.6519 C   0  0  0  0  0  0  0  0  0  0  0  0
    7.1465   46.7502   22.3941 O   0  0  0  0  0  0  0  0  0  0  0  0
    8.0305   48.6658   23.2629 O   0  0  0  0  0  0  0  0  0  0  0  0
   10.4831   47.3845   22.6847 O   0  0  0  0  0  0  0  0  0  0  0  0
   14.3597   46.5493   18.8265 H   0  0  0  0  0  0  0  0  0  0  0  0
   14.4578   44.8756   19.3588 H   0  0  0  0  0  0  0  0  0  0  0  0
   11.3230   45.4124   16.0429 H   0  0  0  0  0  0  0  0  0  0  0  0
   10.6402   43.9276   16.7080 H   0  0  0  0  0  0  0  0  0  0  0  0
   12.8203   43.1237   17.4461 H   0  0  0  0  0  0  0  0  0  0  0  0
   12.8647   43.4829   15.7076 H   0  0  0  0  0  0  0  0  0  0  0  0
    8.3704   46.2924   20.5432 H   0  0  0  0  0  0  0  0  0  0  0  0
  1  2  1  0  0  0  0
  1  6  1  0  0  0  0
  2  3  1  0  0  0  0
  2 19  1  0  0  0  0
  2 20  1  0  0  0  0
  3  4  2  0  0  0  0
  3  7  1  0  0  0  0
  4  5  1  0  0  0  0
  4  9  1  0  0  0  0
  5  6  1  0  0  0  0
  5 21  1  0  0  0  0
  5 22  1  0  0  0  0
  6 23  1  0  0  0  0
  6 24  1  0  0  0  0
  7  8  1  0  0  0  0
  8  9  2  0  0  0  0
  8 13  1  0  0  0  0
  9 10  1  0  0  0  0
 10 11  2  0  0  0  0
 10 12  1  0  0  0  0
 13 14  1  0  0  0  0
 13 25  1  0  0  0  0
 14 15  1  0  0  0  0
 14 18  2  0  0  0  0
 15 16  2  0  0  0  0
 15 17  1  0  0  0  0
M  END
$$$$
