CPW
 OpenBabel04041916543D

 30 31  0  0  1  0  0  0  0  0999 V2000
   21.9024   14.2560   24.8001 C   0  0  0  0  0  0  0  0  0  0  0  0
   21.8344   14.2819   23.3265 N   0  3  0  0  0  0  0  0  0  0  0  0
   22.8239   15.0330   22.6699 C   0  0  0  0  0  0  0  0  0  0  0  0
   22.8032   14.9755   21.2976 N   0  3  0  0  0  0  0  0  0  0  0  0
   20.8536   13.6333   22.6096 C   0  0  0  0  0  0  0  0  0  0  0  0
   23.6959   15.6634   23.2443 O   0  0  0  0  0  0  0  0  0  0  0  0
   20.8232   13.6523   21.2782 C   0  0  0  0  0  0  0  0  0  0  0  0
   21.8892   14.3138   20.5257 C   0  0  0  0  0  0  0  0  0  0  0  0
   21.9664   14.2376   19.3078 O   0  0  0  0  0  0  0  0  0  0  0  0
   19.7172   12.8393   23.1656 C   0  0  0  0  0  0  0  0  0  0  0  0
   19.0600   12.2297   21.9142 C   0  0  0  0  0  0  0  0  0  0  0  0
   19.6581   12.9406   20.6951 C   0  0  0  0  0  0  0  0  0  0  0  0
   23.0827   13.4072   25.2810 C   0  0  1  0  0  0  0  0  0  0  0  0
   23.2756   13.6728   26.7891 C   0  0  0  0  0  0  0  0  0  0  0  0
   23.5198   14.8480   27.1323 O   0  0  0  0  0  0  0  0  0  0  0  0
   23.1619   12.5966   27.4560 O   0  0  0  0  0  0  0  0  0  0  0  0
   22.7879   11.9437   24.9422 N   0  3  0  0  0  0  0  0  0  0  0  0
   20.9644   13.8611   25.2084 H   0  0  0  0  0  0  0  0  0  0  0  0
   21.9878   15.2886   25.1571 H   0  0  0  0  0  0  0  0  0  0  0  0
   23.5572   15.4489   20.8210 H   0  0  0  0  0  0  0  0  0  0  0  0
   19.0049   13.4665   23.7109 H   0  0  0  0  0  0  0  0  0  0  0  0
   20.0615   12.0404   23.8313 H   0  0  0  0  0  0  0  0  0  0  0  0
   17.9686   12.3327   21.9456 H   0  0  0  0  0  0  0  0  0  0  0  0
   19.2668   11.1522   21.8629 H   0  0  0  0  0  0  0  0  0  0  0  0
   19.9447   12.2240   19.9202 H   0  0  0  0  0  0  0  0  0  0  0  0
   18.9387   13.6494   20.2706 H   0  0  0  0  0  0  0  0  0  0  0  0
   24.0157   13.6324   24.7548 H   0  0  0  0  0  0  0  0  0  0  0  0
   23.5603   11.3816   25.3231 H   0  0  0  0  0  0  0  0  0  0  0  0
   21.9778   11.6568   25.5068 H   0  0  0  0  0  0  0  0  0  0  0  0
   22.6508   11.7961   23.9435 H   0  0  0  0  0  0  0  0  0  0  0  0
  1  2  1  0  0  0  0
  1 13  1  0  0  0  0
  1 18  1  0  0  0  0
  1 19  1  0  0  0  0
  2  3  1  0  0  0  0
  2  5  1  0  0  0  0
  3  4  1  0  0  0  0
  3  6  2  0  0  0  0
  4  8  1  0  0  0  0
  4 20  1  0  0  0  0
  5  7  2  0  0  0  0
  5 10  1  0  0  0  0
  7  8  1  0  0  0  0
  7 12  1  0  0  0  0
  8  9  2  0  0  0  0
 10 11  1  0  0  0  0
 10 21  1  0  0  0  0
 10 22  1  0  0  0  0
 11 12  1  0  0  0  0
 11 23  1  0  0  0  0
 11 24  1  0  0  0  0
 12 25  1  0  0  0  0
 12 26  1  0  0  0  0
 13 14  1  0  0  0  0
 13 17  1  0  0  0  0
 13 27  1  6  0  0  0
 14 15  2  0  0  0  0
 14 16  1  0  0  0  0
 17 28  1  0  0  0  0
 17 29  1  0  0  0  0
 17 30  1  0  0  0  0
M  CHG  3   2   1   4   1  17   1
M  END
$$$$
