CR3
 OpenBabel04041916023D

 47 50  0  0  1  0  0  0  0  0999 V2000
   44.1607   -3.0793   25.8800 C   0  0  1  0  0  0  0  0  0  0  0  0
   44.5335   -1.7153   25.9281 C   0  0  0  0  0  0  0  0  0  0  0  0
   44.5004   -0.9622   27.0926 C   0  0  0  0  0  0  0  0  0  0  0  0
   44.0605   -1.6324   28.2105 C   0  0  2  0  0  0  0  0  0  0  0  0
   43.6779   -2.9652   28.2170 C   0  0  1  0  0  0  0  0  0  0  0  0
   43.7355   -3.7104   27.0474 C   0  0  0  0  0  0  0  0  0  0  0  0
   44.2057   -3.8246   24.6151 C   0  0  0  0  0  0  0  0  0  0  0  0
   43.7724   -5.0619   24.5513 N   0  0  0  0  0  0  0  0  0  0  0  0
   44.6790   -3.2317   23.5558 N   0  0  0  0  0  0  0  0  0  0  0  0
   43.9062   -1.1760   29.4777 N   0  3  0  0  0  0  0  0  0  0  0  0
   43.2879   -3.2994   29.5120 C   0  0  0  0  0  0  0  0  0  0  0  0
   43.4504   -2.1823   30.2863 C   0  0  1  0  0  0  0  0  0  0  0  0
   43.2419   -2.0026   31.6983 C   0  0  1  0  0  0  0  0  0  0  0  0
   42.9150   -3.1238   32.4601 C   0  0  0  0  0  0  0  0  0  0  0  0
   42.7470   -3.0042   33.8244 C   0  0  0  0  0  0  0  0  0  0  0  0
   42.9127   -1.7587   34.4358 C   0  0  0  0  0  0  0  0  0  0  0  0
   43.2496   -0.6294   33.6865 C   0  0  2  0  0  0  0  0  0  0  0  0
   43.4002    0.6392   34.1536 O   0  0  0  0  0  0  0  0  0  0  0  0
   43.4121   -0.7597   32.3143 C   0  0  1  0  0  0  0  0  0  0  0  0
   43.7895    0.3258   31.5486 O   0  0  0  0  0  0  0  0  0  0  0  0
   43.2910    2.3294   35.7956 C   0  0  0  0  0  0  0  0  0  0  0  0
   43.6292    0.8612   35.5414 C   0  0  0  0  0  0  0  0  0  0  0  0
   45.1194    0.7155   35.8622 C   0  0  0  0  0  0  0  0  0  0  0  0
   45.5848    2.0476   36.4403 C   0  0  0  0  0  0  0  0  0  0  0  0
   44.3283    2.8280   36.7787 C   0  0  0  0  0  0  0  0  0  0  0  0
   44.8627   -1.1639   25.0584 H   0  0  0  0  0  0  0  0  0  0  0  0
   44.7910    0.0803   27.1194 H   0  0  0  0  0  0  0  0  0  0  0  0
   43.4385   -4.7510   27.1300 H   0  0  0  0  0  0  0  0  0  0  0  0
   43.8001   -5.5794   23.7045 H   0  0  0  0  0  0  0  0  0  0  0  0
   45.0214   -2.2853   23.5684 H   0  0  0  0  0  0  0  0  0  0  0  0
   44.7226   -3.6925   22.6489 H   0  0  0  0  0  0  0  0  0  0  0  0
   44.0931   -0.2332   29.8018 H   0  0  0  0  0  0  0  0  0  0  0  0
   42.9397   -4.2633   29.8444 H   0  0  0  0  0  0  0  0  0  0  0  0
   42.7998   -4.1050   32.0017 H   0  0  0  0  0  0  0  0  0  0  0  0
   42.4806   -3.8861   34.3988 H   0  0  0  0  0  0  0  0  0  0  0  0
   42.7474   -1.7098   35.5025 H   0  0  0  0  0  0  0  0  0  0  0  0
   44.4325    0.8177   32.0908 H   0  0  0  0  0  0  0  0  0  0  0  0
   43.3358    2.9057   34.8636 H   0  0  0  0  0  0  0  0  0  0  0  0
   42.2759    2.4438   36.1915 H   0  0  0  0  0  0  0  0  0  0  0  0
   43.0088    0.2318   36.1896 H   0  0  0  0  0  0  0  0  0  0  0  0
   45.7107    0.4590   34.9758 H   0  0  0  0  0  0  0  0  0  0  0  0
   45.2724   -0.0858   36.5941 H   0  0  0  0  0  0  0  0  0  0  0  0
   46.1772    2.5881   35.6931 H   0  0  0  0  0  0  0  0  0  0  0  0
   46.2174    1.9084   37.3226 H   0  0  0  0  0  0  0  0  0  0  0  0
   44.4849    3.9071   36.6791 H   0  0  0  0  0  0  0  0  0  0  0  0
   44.0140    2.6248   37.8074 H   0  0  0  0  0  0  0  0  0  0  0  0
   43.3937   -5.5494   25.3582 H   0  0  0  0  0  0  0  0  0  0  0  0
  1  2  1  0  0  0  0
  1  6  1  0  0  0  0
  1  7  1  6  0  0  0
  2  3  1  0  0  0  0
  2 26  1  0  0  0  0
  3 27  1  0  0  0  0
  4  3  1  6  0  0  0
  4  5  1  0  0  0  0
  4 10  1  0  0  0  0
  5  6  1  1  0  0  0
  5 11  1  0  0  0  0
  6 28  1  0  0  0  0
  7  8  2  0  0  0  0
  7  9  1  0  0  0  0
  8 29  1  0  0  0  0
  8 47  1  0  0  0  0
  9 30  1  0  0  0  0
  9 31  1  0  0  0  0
 10 32  1  0  0  0  0
 11 12  1  0  0  0  0
 11 33  1  0  0  0  0
 12 10  1  1  0  0  0
 12 13  1  0  0  0  0
 13 14  1  1  0  0  0
 13 19  1  0  0  0  0
 14 15  1  0  0  0  0
 14 34  1  0  0  0  0
 15 16  1  0  0  0  0
 15 35  1  0  0  0  0
 16 17  1  0  0  0  0
 16 36  1  0  0  0  0
 17 18  1  6  0  0  0
 17 19  1  0  0  0  0
 18 22  1  0  0  0  0
 19 20  1  1  0  0  0
 20 37  1  0  0  0  0
 21 25  1  0  0  0  0
 21 22  1  0  0  0  0
 21 38  1  0  0  0  0
 21 39  1  0  0  0  0
 22 23  1  0  0  0  0
 22 40  1  0  0  0  0
 23 24  1  0  0  0  0
 23 41  1  0  0  0  0
 23 42  1  0  0  0  0
 24 25  1  0  0  0  0
 24 43  1  0  0  0  0
 24 44  1  0  0  0  0
 25 45  1  0  0  0  0
 25 46  1  0  0  0  0
M  CHG  1  10   1
M  END
$$$$
