CR4
 OpenBabel04041916183D

 32 34  0  0  0  0  0  0  0  0999 V2000
   16.3637   -6.1909   25.2146 C   0  0  0  0  0  0  0  0  0  0  0  0
   15.4260   -5.2359   24.7410 C   0  0  0  0  0  0  0  0  0  0  0  0
   15.0194   -4.1469   25.4983 C   0  0  0  0  0  0  0  0  0  0  0  0
   15.6335   -4.0398   26.7260 C   0  0  0  0  0  0  0  0  0  0  0  0
   16.5197   -4.9612   27.2600 C   0  0  0  0  0  0  0  0  0  0  0  0
   16.8931   -6.0571   26.5023 C   0  0  0  0  0  0  0  0  0  0  0  0
   16.7907   -7.3137   24.3823 C   0  0  0  0  0  0  0  0  0  0  0  0
   17.9007   -7.9580   24.6361 N   0  0  0  0  0  0  0  0  0  0  0  0
   16.0395   -7.6847   23.3545 N   0  0  0  0  0  0  0  0  0  0  0  0
   15.5926   -3.0571   27.6579 N   0  3  0  0  0  0  0  0  0  0  0  0
   16.8999   -4.6200   28.5147 N   0  0  0  0  0  0  0  0  0  0  0  0
   16.2759   -3.4878   28.7681 C   0  0  0  0  0  0  0  0  0  0  0  0
   16.2768   -2.7673   30.0228 C   0  0  0  0  0  0  0  0  0  0  0  0
   17.2604   -3.0836   30.9688 C   0  0  0  0  0  0  0  0  0  0  0  0
   17.2894   -2.4256   32.1957 C   0  0  0  0  0  0  0  0  0  0  0  0
   16.3314   -1.4588   32.4865 C   0  0  0  0  0  0  0  0  0  0  0  0
   15.3460   -1.1352   31.5514 C   0  0  0  0  0  0  0  0  0  0  0  0
   15.3246   -1.7917   30.3284 C   0  0  0  0  0  0  0  0  0  0  0  0
   14.3232   -1.4286   29.4602 O   0  0  0  0  0  0  0  0  0  0  0  0
   15.0018   -5.2937   23.7394 H   0  0  0  0  0  0  0  0  0  0  0  0
   14.3043   -3.4098   25.1441 H   0  0  0  0  0  0  0  0  0  0  0  0
   17.5976   -6.7531   26.9644 H   0  0  0  0  0  0  0  0  0  0  0  0
   18.2170   -8.7498   24.0908 H   0  0  0  0  0  0  0  0  0  0  0  0
   15.1592   -7.2175   23.1628 H   0  0  0  0  0  0  0  0  0  0  0  0
   16.2951   -8.4446   22.7469 H   0  0  0  0  0  0  0  0  0  0  0  0
   15.1025   -2.1810   27.5670 H   0  0  0  0  0  0  0  0  0  0  0  0
   18.0068   -3.8439   30.7467 H   0  0  0  0  0  0  0  0  0  0  0  0
   18.0573   -2.6811   32.9208 H   0  0  0  0  0  0  0  0  0  0  0  0
   16.3423   -0.9511   33.4476 H   0  0  0  0  0  0  0  0  0  0  0  0
   14.5918   -0.3940   31.7787 H   0  0  0  0  0  0  0  0  0  0  0  0
   13.9166   -2.2477   29.1285 H   0  0  0  0  0  0  0  0  0  0  0  0
   18.5075   -7.6845   25.4039 H   0  0  0  0  0  0  0  0  0  0  0  0
  1  2  2  0  0  0  0
  1  6  1  0  0  0  0
  1  7  1  0  0  0  0
  2  3  1  0  0  0  0
  2 20  1  0  0  0  0
  3  4  2  0  0  0  0
  3 21  1  0  0  0  0
  4  5  1  0  0  0  0
  4 10  1  0  0  0  0
  5  6  2  0  0  0  0
  5 11  1  0  0  0  0
  6 22  1  0  0  0  0
  7  8  2  0  0  0  0
  7  9  1  0  0  0  0
  8 23  1  0  0  0  0
  8 32  1  0  0  0  0
  9 24  1  0  0  0  0
  9 25  1  0  0  0  0
 10 12  2  0  0  0  0
 10 26  1  0  0  0  0
 11 12  1  0  0  0  0
 12 13  1  0  0  0  0
 13 14  2  0  0  0  0
 13 18  1  0  0  0  0
 14 15  1  0  0  0  0
 14 27  1  0  0  0  0
 15 16  2  0  0  0  0
 15 28  1  0  0  0  0
 16 17  1  0  0  0  0
 16 29  1  0  0  0  0
 17 18  2  0  0  0  0
 17 30  1  0  0  0  0
 18 19  1  0  0  0  0
 19 31  1  0  0  0  0
M  CHG  1  10   1
M  END
$$$$
