CR9
 OpenBabel04041916063D

 52 55  0  0  1  0  0  0  0  0999 V2000
   11.7851  -11.7614   22.9167 C   0  0  0  0  0  0  0  0  0  0  0  0
   12.3542  -10.5061   22.5729 C   0  0  0  0  0  0  0  0  0  0  0  0
   12.0831   -9.4312   23.3233 F   0  0  0  0  0  0  0  0  0  0  0  0
   13.1837  -10.3385   21.4950 C   0  0  0  0  0  0  0  0  0  0  0  0
   13.4286  -11.4890   20.7830 C   0  0  0  0  0  0  0  0  0  0  0  0
   12.9249  -12.7427   21.0399 C   0  0  0  0  0  0  0  0  0  0  0  0
   12.0868  -12.8991   22.1340 C   0  0  0  0  0  0  0  0  0  0  0  0
   10.8966  -11.8893   24.0825 C   0  0  0  0  0  0  0  0  0  0  0  0
   10.2708  -13.0041   24.3078 N   0  0  0  0  0  0  0  0  0  0  0  0
   10.7396  -10.8675   24.8988 N   0  0  0  0  0  0  0  0  0  0  0  0
   14.2242  -11.6845   19.7112 N   0  3  0  0  0  0  0  0  0  0  0  0
   13.3611  -13.6558   20.1197 N   0  0  0  0  0  0  0  0  0  0  0  0
   14.1571  -12.9815   19.3009 C   0  0  0  0  0  0  0  0  0  0  0  0
   14.8840  -13.5124   18.1537 C   0  0  0  0  0  0  0  0  0  0  0  0
   14.7625  -14.8851   17.8814 C   0  0  0  0  0  0  0  0  0  0  0  0
   15.4408  -15.4676   16.8250 C   0  0  0  0  0  0  0  0  0  0  0  0
   16.2553  -14.6984   15.9949 C   0  0  0  0  0  0  0  0  0  0  0  0
   16.4081  -13.3367   16.2418 C   0  0  0  0  0  0  0  0  0  0  0  0
   15.7186  -12.7494   17.3121 C   0  0  0  0  0  0  0  0  0  0  0  0
   15.9943  -11.4133   17.4758 O   0  0  0  0  0  0  0  0  0  0  0  0
   17.1075  -12.4592   15.4702 O   0  0  0  0  0  0  0  0  0  0  0  0
   18.2924  -12.2050   13.3672 C   0  0  1  0  0  0  0  0  0  0  0  0
   19.3154  -11.0624   13.2862 C   0  0  0  0  0  0  0  0  0  0  0  0
   20.7244  -11.5643   13.5989 C   0  0  0  0  0  0  0  0  0  0  0  0
   20.7673  -12.5195   14.7940 C   0  0  0  0  0  0  0  0  0  0  0  0
   19.4909  -12.4500   15.6195 C   0  0  0  0  0  0  0  0  0  0  0  0
   18.2770  -12.8718   14.7747 C   0  0  1  0  0  0  0  0  0  0  0  0
   16.9186  -11.6974   12.9260 C   0  0  0  0  0  0  0  0  0  0  0  0
   13.6210   -9.3810   21.2127 H   0  0  0  0  0  0  0  0  0  0  0  0
   11.7254  -13.8952   22.3233 H   0  0  0  0  0  0  0  0  0  0  0  0
    9.6548  -13.1288   25.1040 H   0  0  0  0  0  0  0  0  0  0  0  0
   11.2121   -9.9832   24.7238 H   0  0  0  0  0  0  0  0  0  0  0  0
   10.1395  -10.9111   25.7154 H   0  0  0  0  0  0  0  0  0  0  0  0
   14.7830  -10.9320   19.3706 H   0  0  0  0  0  0  0  0  0  0  0  0
   14.1312  -15.5140   18.5230 H   0  0  0  0  0  0  0  0  0  0  0  0
   15.3280  -16.5284   16.6277 H   0  0  0  0  0  0  0  0  0  0  0  0
   16.7335  -15.1736   15.1494 H   0  0  0  0  0  0  0  0  0  0  0  0
   15.2348  -10.9284   17.7975 H   0  0  0  0  0  0  0  0  0  0  0  0
   18.6129  -12.9697   12.6459 H   0  0  0  0  0  0  0  0  0  0  0  0
   19.0414  -10.2681   13.9933 H   0  0  0  0  0  0  0  0  0  0  0  0
   19.3067  -10.6019   12.2912 H   0  0  0  0  0  0  0  0  0  0  0  0
   21.3773  -10.7034   13.7839 H   0  0  0  0  0  0  0  0  0  0  0  0
   21.1342  -12.0758   12.7189 H   0  0  0  0  0  0  0  0  0  0  0  0
   21.6388  -12.2937   15.4178 H   0  0  0  0  0  0  0  0  0  0  0  0
   20.9005  -13.5467   14.4314 H   0  0  0  0  0  0  0  0  0  0  0  0
   19.3480  -11.4314   16.0073 H   0  0  0  0  0  0  0  0  0  0  0  0
   19.5683  -13.0865   16.5085 H   0  0  0  0  0  0  0  0  0  0  0  0
   18.3152  -13.9551   14.6296 H   0  0  0  0  0  0  0  0  0  0  0  0
   16.9693  -11.2494   11.9289 H   0  0  0  0  0  0  0  0  0  0  0  0
   16.5426  -10.9282   13.6103 H   0  0  0  0  0  0  0  0  0  0  0  0
   16.1945  -12.5174   12.8929 H   0  0  0  0  0  0  0  0  0  0  0  0
   10.3570  -13.8102   23.6875 H   0  0  0  0  0  0  0  0  0  0  0  0
  1  2  2  0  0  0  0
  1  7  1  0  0  0  0
  1  8  1  0  0  0  0
  2  3  1  0  0  0  0
  2  4  1  0  0  0  0
  4  5  2  0  0  0  0
  4 29  1  0  0  0  0
  5  6  1  0  0  0  0
  5 11  1  0  0  0  0
  6  7  2  0  0  0  0
  6 12  1  0  0  0  0
  7 30  1  0  0  0  0
  8  9  2  0  0  0  0
  8 10  1  0  0  0  0
  9 31  1  0  0  0  0
  9 52  1  0  0  0  0
 10 32  1  0  0  0  0
 10 33  1  0  0  0  0
 11 13  2  0  0  0  0
 11 34  1  0  0  0  0
 12 13  1  0  0  0  0
 13 14  1  0  0  0  0
 14 15  2  0  0  0  0
 14 19  1  0  0  0  0
 15 16  1  0  0  0  0
 15 35  1  0  0  0  0
 16 17  2  0  0  0  0
 16 36  1  0  0  0  0
 17 18  1  0  0  0  0
 17 37  1  0  0  0  0
 18 19  2  0  0  0  0
 18 21  1  0  0  0  0
 19 20  1  0  0  0  0
 20 38  1  0  0  0  0
 21 27  1  0  0  0  0
 22 23  1  0  0  0  0
 22 27  1  0  0  0  0
 22 28  1  0  0  0  0
 22 39  1  6  0  0  0
 23 24  1  0  0  0  0
 23 40  1  0  0  0  0
 23 41  1  0  0  0  0
 24 25  1  0  0  0  0
 24 42  1  0  0  0  0
 24 43  1  0  0  0  0
 25 26  1  0  0  0  0
 25 44  1  0  0  0  0
 25 45  1  0  0  0  0
 26 27  1  0  0  0  0
 26 46  1  0  0  0  0
 26 47  1  0  0  0  0
 27 48  1  6  0  0  0
 28 49  1  0  0  0  0
 28 50  1  0  0  0  0
 28 51  1  0  0  0  0
M  CHG  1  11   1
M  END
$$$$
