CR9
 OpenBabel04041916033D

 52 55  0  0  1  0  0  0  0  0999 V2000
   43.8915   -3.1595   25.7979 C   0  0  0  0  0  0  0  0  0  0  0  0
   43.8285   -1.7621   25.6547 C   0  0  0  0  0  0  0  0  0  0  0  0
   43.9674   -1.2334   24.4266 F   0  0  0  0  0  0  0  0  0  0  0  0
   43.6507   -0.8962   26.7139 C   0  0  0  0  0  0  0  0  0  0  0  0
   43.5292   -1.5193   27.9408 C   0  0  0  0  0  0  0  0  0  0  0  0
   43.5773   -2.8864   28.1499 C   0  0  0  0  0  0  0  0  0  0  0  0
   43.7723   -3.7411   27.0771 C   0  0  0  0  0  0  0  0  0  0  0  0
   44.1167   -4.0165   24.6486 C   0  0  0  0  0  0  0  0  0  0  0  0
   43.6810   -5.2686   24.6676 N   0  0  0  0  0  0  0  0  0  0  0  0
   44.7545   -3.5434   23.6007 N   0  0  0  0  0  0  0  0  0  0  0  0
   43.3519   -1.0095   29.1816 N   0  3  0  0  0  0  0  0  0  0  0  0
   43.4164   -3.1993   29.4586 N   0  0  0  0  0  0  0  0  0  0  0  0
   43.2750   -2.0452   30.0765 C   0  0  0  0  0  0  0  0  0  0  0  0
   43.0489   -1.8202   31.4856 C   0  0  0  0  0  0  0  0  0  0  0  0
   42.9010   -2.9476   32.3005 C   0  0  0  0  0  0  0  0  0  0  0  0
   42.6499   -2.7749   33.6554 C   0  0  0  0  0  0  0  0  0  0  0  0
   42.5586   -1.4803   34.1909 C   0  0  0  0  0  0  0  0  0  0  0  0
   42.7167   -0.3380   33.4113 C   0  0  0  0  0  0  0  0  0  0  0  0
   42.9390   -0.5251   32.0349 C   0  0  0  0  0  0  0  0  0  0  0  0
   43.0560    0.5536   31.1881 O   0  0  0  0  0  0  0  0  0  0  0  0
   42.5842    0.9418   33.8867 O   0  0  0  0  0  0  0  0  0  0  0  0
   42.4784    2.4730   35.8286 C   0  0  1  0  0  0  0  0  0  0  0  0
   43.1556    2.9204   37.1452 C   0  0  0  0  0  0  0  0  0  0  0  0
   44.6625    3.0925   37.0054 C   0  0  0  0  0  0  0  0  0  0  0  0
   45.2827    1.8556   36.3648 C   0  0  0  0  0  0  0  0  0  0  0  0
   44.6501    1.5767   35.0037 C   0  0  0  0  0  0  0  0  0  0  0  0
   43.1690    1.2385   35.1817 C   0  0  2  0  0  0  0  0  0  0  0  0
   41.0151    2.1738   36.1240 C   0  0  0  0  0  0  0  0  0  0  0  0
   43.6112    0.1820   26.6003 H   0  0  0  0  0  0  0  0  0  0  0  0
   43.8414   -4.7991   27.2702 H   0  0  0  0  0  0  0  0  0  0  0  0
   43.8347   -5.8943   23.8919 H   0  0  0  0  0  0  0  0  0  0  0  0
   45.0603   -2.5637   23.6127 H   0  0  0  0  0  0  0  0  0  0  0  0
   44.9369   -4.0647   22.7717 H   0  0  0  0  0  0  0  0  0  0  0  0
   43.2820   -0.0368   29.4476 H   0  0  0  0  0  0  0  0  0  0  0  0
   42.9601   -3.9420   31.8738 H   0  0  0  0  0  0  0  0  0  0  0  0
   42.5148   -3.6486   34.2780 H   0  0  0  0  0  0  0  0  0  0  0  0
   42.3209   -1.4074   35.2673 H   0  0  0  0  0  0  0  0  0  0  0  0
   42.2877    1.1331   31.3728 H   0  0  0  0  0  0  0  0  0  0  0  0
   42.5208    3.3069   35.1147 H   0  0  0  0  0  0  0  0  0  0  0  0
   42.9609    2.1811   37.9335 H   0  0  0  0  0  0  0  0  0  0  0  0
   42.7155    3.8635   37.4970 H   0  0  0  0  0  0  0  0  0  0  0  0
   45.1082    3.2692   37.9922 H   0  0  0  0  0  0  0  0  0  0  0  0
   44.8763    3.9801   36.3976 H   0  0  0  0  0  0  0  0  0  0  0  0
   45.1195    0.9917   37.0222 H   0  0  0  0  0  0  0  0  0  0  0  0
   46.3630    1.9874   36.2621 H   0  0  0  0  0  0  0  0  0  0  0  0
   45.1716    0.7607   34.4946 H   0  0  0  0  0  0  0  0  0  0  0  0
   44.7454    2.4551   34.3508 H   0  0  0  0  0  0  0  0  0  0  0  0
   43.0623    0.3991   35.8785 H   0  0  0  0  0  0  0  0  0  0  0  0
   40.5211    3.0550   36.5460 H   0  0  0  0  0  0  0  0  0  0  0  0
   40.9370    1.3594   36.8524 H   0  0  0  0  0  0  0  0  0  0  0  0
   40.4837    1.8801   35.2165 H   0  0  0  0  0  0  0  0  0  0  0  0
   43.1728   -5.6338   25.4660 H   0  0  0  0  0  0  0  0  0  0  0  0
  1  2  2  0  0  0  0
  1  7  1  0  0  0  0
  1  8  1  0  0  0  0
  2  3  1  0  0  0  0
  2  4  1  0  0  0  0
  4  5  2  0  0  0  0
  4 29  1  0  0  0  0
  5  6  1  0  0  0  0
  5 11  1  0  0  0  0
  6  7  2  0  0  0  0
  6 12  1  0  0  0  0
  7 30  1  0  0  0  0
  8  9  2  0  0  0  0
  8 10  1  0  0  0  0
  9 31  1  0  0  0  0
  9 52  1  0  0  0  0
 10 32  1  0  0  0  0
 10 33  1  0  0  0  0
 11 13  2  0  0  0  0
 11 34  1  0  0  0  0
 12 13  1  0  0  0  0
 13 14  1  0  0  0  0
 14 15  2  0  0  0  0
 14 19  1  0  0  0  0
 15 16  1  0  0  0  0
 15 35  1  0  0  0  0
 16 17  2  0  0  0  0
 16 36  1  0  0  0  0
 17 18  1  0  0  0  0
 17 37  1  0  0  0  0
 18 19  2  0  0  0  0
 18 21  1  0  0  0  0
 19 20  1  0  0  0  0
 20 38  1  0  0  0  0
 21 27  1  0  0  0  0
 22 23  1  0  0  0  0
 22 27  1  0  0  0  0
 22 28  1  0  0  0  0
 22 39  1  6  0  0  0
 23 24  1  0  0  0  0
 23 40  1  0  0  0  0
 23 41  1  0  0  0  0
 24 25  1  0  0  0  0
 24 42  1  0  0  0  0
 24 43  1  0  0  0  0
 25 26  1  0  0  0  0
 25 44  1  0  0  0  0
 25 45  1  0  0  0  0
 26 27  1  0  0  0  0
 26 46  1  0  0  0  0
 26 47  1  0  0  0  0
 27 48  1  1  0  0  0
 28 49  1  0  0  0  0
 28 50  1  0  0  0  0
 28 51  1  0  0  0  0
M  CHG  1  11   1
M  END
$$$$
