CSN
 OpenBabel04041916193D

 18 18  0  0  0  0  0  0  0  0999 V2000
    5.8192   -8.5897   73.6143 S   0  0  0  0  0  0  0  0  0  0  0  0
    4.3618   -8.8253   72.8792 O   0  0  0  0  0  0  0  0  0  0  0  0
    5.5817   -8.0864   74.9604 O   0  0  0  0  0  0  0  0  0  0  0  0
    6.4813   -7.6037   72.7403 O   0  0  0  0  0  0  0  0  0  0  0  0
    6.4885   -9.9002   73.5709 O   0  0  0  0  0  0  0  0  0  0  0  0
    2.2092   -8.4297   74.7172 O   0  0  0  0  0  0  0  0  0  0  0  0
    2.1985  -14.3781   72.7592 O   0  0  0  0  0  0  0  0  0  0  0  0
    3.7923  -13.6073   71.4828 O   0  0  0  0  0  0  0  0  0  0  0  0
    3.6700  -11.0973   72.6584 C   0  0  0  0  0  0  0  0  0  0  0  0
    2.9556  -13.4589   72.3865 N   0  0  0  0  0  0  0  0  0  0  0  0
    1.7020  -10.6983   74.5685 C   0  0  0  0  0  0  0  0  0  0  0  0
    3.5202   -9.8452   73.2934 C   0  0  0  0  0  0  0  0  0  0  0  0
    1.8530  -11.9603   73.9976 C   0  0  0  0  0  0  0  0  0  0  0  0
    2.4819   -9.5771   74.2233 C   0  0  0  0  0  0  0  0  0  0  0  0
    2.8278  -12.1441   73.0213 C   0  0  0  0  0  0  0  0  0  0  0  0
    4.4398  -11.2155   71.8964 H   0  0  0  0  0  0  0  0  0  0  0  0
    0.9285  -10.5440   75.3282 H   0  0  0  0  0  0  0  0  0  0  0  0
    1.1870  -12.7511   74.3154 H   0  0  0  0  0  0  0  0  0  0  0  0
  1  2  1  0  0  0  0
  1  3  2  0  0  0  0
  1  4  2  0  0  0  0
  1  5  1  0  0  0  0
  2 12  1  0  0  0  0
  6 14  1  0  0  0  0
  7 10  2  0  0  0  0
  8 10  2  0  0  0  0
  9 15  2  0  0  0  0
  9 12  1  0  0  0  0
  9 16  1  0  0  0  0
 10 15  1  0  0  0  0
 11 14  1  0  0  0  0
 11 13  2  0  0  0  0
 11 17  1  0  0  0  0
 12 14  2  0  0  0  0
 13 15  1  0  0  0  0
 13 18  1  0  0  0  0
M  END
$$$$
