CXA
 OpenBabel04041915063D

 27 27  0  0  1  0  0  0  0  0999 V2000
    5.5588   -9.5624   12.5953 C   0  0  0  0  0  0  0  0  0  0  0  0
    6.4556   -8.6633   11.9872 C   0  0  0  0  0  0  0  0  0  0  0  0
    6.1794   -8.1077   10.7252 C   0  0  0  0  0  0  0  0  0  0  0  0
    5.0080   -8.4432   10.0459 C   0  0  0  0  0  0  0  0  0  0  0  0
    4.1171   -9.3454   10.6222 C   0  0  0  0  0  0  0  0  0  0  0  0
    4.3946   -9.9041   11.8782 C   0  0  0  0  0  0  0  0  0  0  0  0
    5.8066  -10.1564   13.9980 C   0  0  0  0  0  0  0  0  0  0  0  0
    5.3276   -9.2984   15.2707 C   0  0  1  0  0  0  0  0  0  0  0  0
    3.8195   -9.1403   15.1670 C   0  0  0  0  0  0  0  0  0  0  0  0
    3.4598   -8.0277   14.5559 O   0  0  0  0  0  0  0  0  0  0  0  0
    3.0751  -10.0622   15.5544 O   0  0  0  0  0  0  0  0  0  0  0  0
    5.8884   -9.8401   16.5987 N   0  0  0  0  0  0  0  0  0  0  0  0
    5.5008   -9.0931   18.0624 S   0  0  0  0  0  0  0  0  0  0  0  0
    6.5663   -7.8364   18.2681 N   0  0  0  0  0  0  0  0  0  0  0  0
    5.8835   -9.9946   19.1200 O   0  0  0  0  0  0  0  0  0  0  0  0
    4.2022   -8.4487   18.0749 O   0  0  0  0  0  0  0  0  0  0  0  0
    7.3733   -8.3828   12.4974 H   0  0  0  0  0  0  0  0  0  0  0  0
    6.8745   -7.3993   10.2732 H   0  0  0  0  0  0  0  0  0  0  0  0
    4.7822   -8.0030    9.0731 H   0  0  0  0  0  0  0  0  0  0  0  0
    3.1928   -9.6083   10.1063 H   0  0  0  0  0  0  0  0  0  0  0  0
    3.6769  -10.5954   12.3170 H   0  0  0  0  0  0  0  0  0  0  0  0
    6.8921  -10.3532   14.0609 H   0  0  0  0  0  0  0  0  0  0  0  0
    5.3414  -11.1543   14.0129 H   0  0  0  0  0  0  0  0  0  0  0  0
    5.8448   -8.3453   15.1743 H   0  0  0  0  0  0  0  0  0  0  0  0
    5.9374  -10.8746   16.6296 H   0  0  0  0  0  0  0  0  0  0  0  0
    6.4147   -7.2580   19.1022 H   0  0  0  0  0  0  0  0  0  0  0  0
    7.1384   -7.4568   17.5223 H   0  0  0  0  0  0  0  0  0  0  0  0
  1  2  2  0  0  0  0
  1  6  1  0  0  0  0
  1  7  1  0  0  0  0
  2  3  1  0  0  0  0
  2 17  1  0  0  0  0
  3  4  2  0  0  0  0
  3 18  1  0  0  0  0
  4  5  1  0  0  0  0
  4 19  1  0  0  0  0
  5  6  2  0  0  0  0
  5 20  1  0  0  0  0
  6 21  1  0  0  0  0
  7  8  1  0  0  0  0
  7 22  1  0  0  0  0
  7 23  1  0  0  0  0
  8  9  1  0  0  0  0
  8 12  1  0  0  0  0
  8 24  1  6  0  0  0
  9 10  2  0  0  0  0
  9 11  1  0  0  0  0
 12 13  1  0  0  0  0
 12 25  1  0  0  0  0
 13 14  1  0  0  0  0
 13 15  2  0  0  0  0
 13 16  2  0  0  0  0
 14 26  1  0  0  0  0
 14 27  1  0  0  0  0
M  END
$$$$
