CYS
 OpenBabel04041917423D

 14 13  0  0  1  0  0  0  0  0999 V2000
   -8.7189   82.3344  -31.0659 N   0  3  0  0  0  0  0  0  0  0  0  0
   -7.9591   81.7104  -29.8871 C   0  0  2  0  0  0  0  0  0  0  0  0
   -8.3076   80.2007  -29.6120 C   0  0  0  0  0  0  0  0  0  0  0  0
   -7.8784   79.7342  -28.5503 O   0  0  0  0  0  0  0  0  0  0  0  0
   -8.2314   82.5386  -28.6366 C   0  0  0  0  0  0  0  0  0  0  0  0
  -10.0286   82.5229  -28.2922 S   0  0  0  0  0  0  0  0  0  0  0  0
   -8.9953   79.7153  -30.5644 O   0  0  0  0  0  0  0  0  0  0  0  0
   -8.4772   83.3147  -31.2228 H   0  0  0  0  0  0  0  0  0  0  0  0
   -8.5278   81.7503  -31.8866 H   0  0  0  0  0  0  0  0  0  0  0  0
   -6.8998   81.7974  -30.1476 H   0  0  0  0  0  0  0  0  0  0  0  0
   -7.9065   83.5839  -28.7931 H   0  0  0  0  0  0  0  0  0  0  0  0
   -7.6496   82.1447  -27.7890 H   0  0  0  0  0  0  0  0  0  0  0  0
  -10.0504   83.2375  -27.1541 H   0  0  0  0  0  0  0  0  0  0  0  0
   -9.7136   82.2143  -30.8662 H   0  0  0  0  0  0  0  0  0  0  0  0
  1  2  1  0  0  0  0
  1  8  1  0  0  0  0
  1  9  1  0  0  0  0
  1 14  1  0  0  0  0
  2  3  1  0  0  0  0
  2  5  1  0  0  0  0
  2 10  1  6  0  0  0
  3  4  2  0  0  0  0
  3  7  1  0  0  0  0
  5  6  1  0  0  0  0
  5 11  1  0  0  0  0
  5 12  1  0  0  0  0
  6 13  1  0  0  0  0
M  CHG  1   1   1
M  END
$$$$
