DCM
 OpenBabel04041915553D

 32 33  0  0  1  0  0  0  0  0999 V2000
   14.9571   48.6499  -53.6750 N   0  3  0  0  0  0  0  0  0  0  0  0
   13.9706   47.6900  -53.3188 C   0  0  0  0  0  0  0  0  0  0  0  0
   13.4616   47.7158  -52.0120 N   0  0  0  0  0  0  0  0  0  0  0  0
   13.8860   48.5675  -51.1527 C   0  0  0  0  0  0  0  0  0  0  0  0
   14.9488   49.5495  -51.4700 C   0  0  0  0  0  0  0  0  0  0  0  0
   15.4045   49.5284  -52.6897 C   0  0  0  0  0  0  0  0  0  0  0  0
   13.5278   46.8373  -54.0934 O   0  0  0  0  0  0  0  0  0  0  0  0
   13.3487   48.5706  -49.8846 N   0  0  0  0  0  0  0  0  0  0  0  0
   15.7723   48.7003  -54.9471 C   0  0  1  0  0  0  0  0  0  0  0  0
   15.2869   47.9866  -56.1759 C   0  0  0  0  0  0  0  0  0  0  0  0
   16.2366   48.5510  -57.2241 C   0  0  1  0  0  0  0  0  0  0  0  0
   16.2430   50.0551  -56.9366 C   0  0  2  0  0  0  0  0  0  0  0  0
   16.0652   50.0817  -55.4290 O   0  0  0  0  0  0  0  0  0  0  0  0
   17.5300   47.9605  -56.9515 O   0  0  0  0  0  0  0  0  0  0  0  0
   15.0312   50.8000  -57.5539 C   0  0  0  0  0  0  0  0  0  0  0  0
   14.9389   50.8216  -58.9706 O   0  0  0  0  0  0  0  0  0  0  0  0
   15.6891   52.0181  -59.8511 P   0  0  0  0  0  0  0  0  0  0  0  0
   17.1772   51.7155  -59.7289 O   0  0  0  0  0  0  0  0  0  0  0  0
   15.1802   51.8211  -61.2690 O   0  0  0  0  0  0  0  0  0  0  0  0
   15.2521   53.3279  -59.1921 O   0  0  0  0  0  0  0  0  0  0  0  0
   15.2999   50.2556  -50.7127 H   0  0  0  0  0  0  0  0  0  0  0  0
   16.1796   50.2233  -53.0320 H   0  0  0  0  0  0  0  0  0  0  0  0
   13.6362   49.2195  -49.1716 H   0  0  0  0  0  0  0  0  0  0  0  0
   12.5940   47.9223  -49.6865 H   0  0  0  0  0  0  0  0  0  0  0  0
   16.7400   48.2812  -54.6288 H   0  0  0  0  0  0  0  0  0  0  0  0
   14.2494   48.2440  -56.3913 H   0  0  0  0  0  0  0  0  0  0  0  0
   15.3902   46.9094  -56.0702 H   0  0  0  0  0  0  0  0  0  0  0  0
   15.9224   48.3256  -58.2419 H   0  0  0  0  0  0  0  0  0  0  0  0
   17.1806   50.5521  -57.2657 H   0  0  0  0  0  0  0  0  0  0  0  0
   17.4499   46.9966  -57.0248 H   0  0  0  0  0  0  0  0  0  0  0  0
   14.9912   51.8118  -57.1466 H   0  0  0  0  0  0  0  0  0  0  0  0
   14.1383   50.2735  -57.1921 H   0  0  0  0  0  0  0  0  0  0  0  0
  1  9  1  0  0  0  0
  1  6  1  0  0  0  0
  1  2  1  0  0  0  0
  2  7  2  0  0  0  0
  2  3  1  0  0  0  0
  3  4  2  0  0  0  0
  4  8  1  0  0  0  0
  4  5  1  0  0  0  0
  5  6  2  0  0  0  0
  5 21  1  0  0  0  0
  6 22  1  0  0  0  0
  8 23  1  0  0  0  0
  8 24  1  0  0  0  0
  9 13  1  0  0  0  0
  9 10  1  0  0  0  0
  9 25  1  1  0  0  0
 10 11  1  0  0  0  0
 10 26  1  0  0  0  0
 10 27  1  0  0  0  0
 11 14  1  0  0  0  0
 11 12  1  0  0  0  0
 11 28  1  6  0  0  0
 12 15  1  0  0  0  0
 12 13  1  0  0  0  0
 12 29  1  6  0  0  0
 14 30  1  0  0  0  0
 15 16  1  0  0  0  0
 15 31  1  0  0  0  0
 15 32  1  0  0  0  0
 16 17  1  0  0  0  0
 17 20  2  0  0  0  0
 17 19  1  0  0  0  0
 17 18  1  0  0  0  0
M  CHG  1   1   1
M  END
$$$$
