DCM
 OpenBabel04041915543D

 32 33  0  0  1  0  0  0  0  0999 V2000
   14.9190   46.4759  -51.7548 N   0  3  0  0  0  0  0  0  0  0  0  0
   14.2072   45.3866  -51.2285 C   0  0  0  0  0  0  0  0  0  0  0  0
   13.7665   45.4210  -49.9085 N   0  0  0  0  0  0  0  0  0  0  0  0
   13.9973   46.4641  -49.1724 C   0  0  0  0  0  0  0  0  0  0  0  0
   14.6698   47.6551  -49.7064 C   0  0  0  0  0  0  0  0  0  0  0  0
   15.1006   47.5792  -50.9849 C   0  0  0  0  0  0  0  0  0  0  0  0
   14.0005   44.3747  -51.8968 O   0  0  0  0  0  0  0  0  0  0  0  0
   13.6310   46.4443  -47.8482 N   0  0  0  0  0  0  0  0  0  0  0  0
   15.7444   46.3331  -52.9832 C   0  0  1  0  0  0  0  0  0  0  0  0
   15.0400   46.0781  -54.2951 C   0  0  0  0  0  0  0  0  0  0  0  0
   16.2265   46.2022  -55.2443 C   0  0  1  0  0  0  0  0  0  0  0  0
   16.9128   47.4719  -54.7643 C   0  0  2  0  0  0  0  0  0  0  0  0
   16.6119   47.4919  -53.2958 O   0  0  0  0  0  0  0  0  0  0  0  0
   17.1370   45.1078  -54.9773 O   0  0  0  0  0  0  0  0  0  0  0  0
   16.4025   48.7244  -55.5222 C   0  0  0  0  0  0  0  0  0  0  0  0
   16.9005   48.7800  -56.8639 O   0  0  0  0  0  0  0  0  0  0  0  0
   15.8921   49.4029  -58.0150 P   0  0  0  0  0  0  0  0  0  0  0  0
   16.7447   49.5209  -59.2694 O   0  0  0  0  0  0  0  0  0  0  0  0
   14.7999   48.3435  -58.0865 O   0  0  0  0  0  0  0  0  0  0  0  0
   15.4453   50.7393  -57.4388 O   0  0  0  0  0  0  0  0  0  0  0  0
   14.8246   48.5186  -49.0858 H   0  0  0  0  0  0  0  0  0  0  0  0
   15.6470   48.4087  -51.4054 H   0  0  0  0  0  0  0  0  0  0  0  0
   13.8740   47.1874  -47.2109 H   0  0  0  0  0  0  0  0  0  0  0  0
   13.2843   45.5711  -47.4659 H   0  0  0  0  0  0  0  0  0  0  0  0
   16.4039   45.4862  -52.7467 H   0  0  0  0  0  0  0  0  0  0  0  0
   14.2867   46.8532  -54.4935 H   0  0  0  0  0  0  0  0  0  0  0  0
   14.5646   45.0985  -54.3376 H   0  0  0  0  0  0  0  0  0  0  0  0
   15.9597   46.1982  -56.3023 H   0  0  0  0  0  0  0  0  0  0  0  0
   18.0038   47.4016  -54.9019 H   0  0  0  0  0  0  0  0  0  0  0  0
   16.6314   44.2883  -55.0876 H   0  0  0  0  0  0  0  0  0  0  0  0
   16.7557   49.6229  -55.0128 H   0  0  0  0  0  0  0  0  0  0  0  0
   15.3105   48.7327  -55.4959 H   0  0  0  0  0  0  0  0  0  0  0  0
  1  9  1  0  0  0  0
  1  6  1  0  0  0  0
  1  2  1  0  0  0  0
  2  7  2  0  0  0  0
  2  3  1  0  0  0  0
  3  4  2  0  0  0  0
  4  8  1  0  0  0  0
  4  5  1  0  0  0  0
  5  6  2  0  0  0  0
  5 21  1  0  0  0  0
  6 22  1  0  0  0  0
  8 23  1  0  0  0  0
  8 24  1  0  0  0  0
  9 13  1  0  0  0  0
  9 10  1  0  0  0  0
  9 25  1  1  0  0  0
 10 11  1  0  0  0  0
 10 26  1  0  0  0  0
 10 27  1  0  0  0  0
 11 14  1  0  0  0  0
 11 12  1  0  0  0  0
 11 28  1  6  0  0  0
 12 15  1  0  0  0  0
 12 13  1  0  0  0  0
 12 29  1  6  0  0  0
 14 30  1  0  0  0  0
 15 16  1  0  0  0  0
 15 31  1  0  0  0  0
 15 32  1  0  0  0  0
 16 17  1  0  0  0  0
 17 20  2  0  0  0  0
 17 19  1  0  0  0  0
 17 18  1  0  0  0  0
M  CHG  1   1   1
M  END
$$$$
