DEG
 OpenBabel04041917133D

 36 36  0  0  1  0  0  0  0  0999 V2000
    9.7576   14.9017   40.5551 C   0  0  0  0  0  0  0  0  0  0  0  0
    9.5705   14.0373   41.7922 C   0  0  0  0  0  0  0  0  0  0  0  0
    9.0290   15.3562   38.1522 C   0  0  0  0  0  0  0  0  0  0  0  0
    8.8208   14.5099   39.4106 C   0  0  0  0  0  0  0  0  0  0  0  0
    7.2733   14.8695   34.9006 C   0  0  1  0  0  0  0  0  0  0  0  0
    7.3349   15.4917   33.6058 O   0  0  0  0  0  0  0  0  0  0  0  0
    7.3700   13.3484   34.7394 C   0  0  1  0  0  0  0  0  0  0  0  0
    6.3835   12.9409   33.7696 O   0  0  0  0  0  0  0  0  0  0  0  0
    8.7766   12.9402   34.2749 C   0  0  2  0  0  0  0  0  0  0  0  0
    8.8855   11.5070   34.2989 O   0  0  0  0  0  0  0  0  0  0  0  0
    9.8290   13.5493   35.2161 C   0  0  2  0  0  0  0  0  0  0  0  0
    9.6841   14.9700   35.3554 O   0  0  0  0  0  0  0  0  0  0  0  0
   11.2616   13.2447   34.7474 C   0  0  0  0  0  0  0  0  0  0  0  0
   11.4798   13.6770   33.4067 O   0  0  0  0  0  0  0  0  0  0  0  0
    8.1395   14.8457   37.1506 O   0  0  0  0  0  0  0  0  0  0  0  0
    8.3959   15.3650   35.8399 C   0  0  2  0  0  0  0  0  0  0  0  0
   10.8005   14.8180   40.2210 H   0  0  0  0  0  0  0  0  0  0  0  0
    9.5911   15.9517   40.8249 H   0  0  0  0  0  0  0  0  0  0  0  0
   10.2623   14.3534   42.5797 H   0  0  0  0  0  0  0  0  0  0  0  0
    9.7698   12.9826   41.5760 H   0  0  0  0  0  0  0  0  0  0  0  0
    8.5528   14.1214   42.1864 H   0  0  0  0  0  0  0  0  0  0  0  0
   10.0685   15.2711   37.8199 H   0  0  0  0  0  0  0  0  0  0  0  0
    8.7927   16.4029   38.3463 H   0  0  0  0  0  0  0  0  0  0  0  0
    7.7744   14.5994   39.7341 H   0  0  0  0  0  0  0  0  0  0  0  0
    8.9673   13.4510   39.1603 H   0  0  0  0  0  0  0  0  0  0  0  0
    6.2901   15.1222   35.3121 H   0  0  0  0  0  0  0  0  0  0  0  0
    6.8578   14.8888   32.9994 H   0  0  0  0  0  0  0  0  0  0  0  0
    7.1340   12.8355   35.6799 H   0  0  0  0  0  0  0  0  0  0  0  0
    5.5312   12.9040   34.2406 H   0  0  0  0  0  0  0  0  0  0  0  0
    8.9160   13.2678   33.2375 H   0  0  0  0  0  0  0  0  0  0  0  0
    9.5985   11.2789   33.6743 H   0  0  0  0  0  0  0  0  0  0  0  0
    9.7338   13.0967   36.2119 H   0  0  0  0  0  0  0  0  0  0  0  0
   11.4571   12.1685   34.7805 H   0  0  0  0  0  0  0  0  0  0  0  0
   11.9854   13.7535   35.3926 H   0  0  0  0  0  0  0  0  0  0  0  0
   12.4379   13.6364   33.2450 H   0  0  0  0  0  0  0  0  0  0  0  0
    8.3778   16.4615   35.8634 H   0  0  0  0  0  0  0  0  0  0  0  0
  1  2  1  0  0  0  0
  1  4  1  0  0  0  0
  1 17  1  0  0  0  0
  1 18  1  0  0  0  0
  2 19  1  0  0  0  0
  2 20  1  0  0  0  0
  2 21  1  0  0  0  0
  3  4  1  0  0  0  0
  3 15  1  0  0  0  0
  3 22  1  0  0  0  0
  3 23  1  0  0  0  0
  4 24  1  0  0  0  0
  4 25  1  0  0  0  0
  5  6  1  0  0  0  0
  5  7  1  0  0  0  0
  5 16  1  0  0  0  0
  5 26  1  1  0  0  0
  6 27  1  0  0  0  0
  7  8  1  0  0  0  0
  7  9  1  0  0  0  0
  7 28  1  1  0  0  0
  8 29  1  0  0  0  0
  9 10  1  0  0  0  0
  9 11  1  0  0  0  0
  9 30  1  6  0  0  0
 10 31  1  0  0  0  0
 11 12  1  0  0  0  0
 11 13  1  0  0  0  0
 11 32  1  1  0  0  0
 12 16  1  0  0  0  0
 13 14  1  0  0  0  0
 13 33  1  0  0  0  0
 13 34  1  0  0  0  0
 14 35  1  0  0  0  0
 15 16  1  0  0  0  0
 16 36  1  1  0  0  0
M  END
$$$$
