DHT
 OpenBabel04041915193D

 51 54  0  0  1  0  0  0  0  0999 V2000
   24.0607   10.0318   31.5702 C   0  0  0  0  0  0  0  0  0  0  0  0
   25.5608   10.1925   31.4597 C   0  0  0  0  0  0  0  0  0  0  0  0
   25.9656   11.6596   31.6262 C   0  0  0  0  0  0  0  0  0  0  0  0
   26.8680   12.1570   30.9516 O   0  0  0  0  0  0  0  0  0  0  0  0
   25.3374   12.4052   32.7926 C   0  0  0  0  0  0  0  0  0  0  0  0
   23.8413   12.1584   32.9006 C   0  0  2  0  0  0  0  0  0  0  0  0
   23.2497   12.8136   34.1549 C   0  0  0  0  0  0  0  0  0  0  0  0
   21.7314   12.7595   34.0779 C   0  0  0  0  0  0  0  0  0  0  0  0
   21.2524   11.3099   34.0249 C   0  0  2  0  0  0  0  0  0  0  0  0
   21.9027   10.5618   32.8279 C   0  0  1  0  0  0  0  0  0  0  0  0
   23.4576   10.6593   32.8470 C   0  0  1  0  0  0  0  0  0  0  0  0
   21.3899    9.1117   32.7135 C   0  0  0  0  0  0  0  0  0  0  0  0
   19.8595    9.0088   32.7002 C   0  0  0  0  0  0  0  0  0  0  0  0
   19.2248    9.7868   33.8609 C   0  0  1  0  0  0  0  0  0  0  0  0
   19.7427   11.2285   33.8423 C   0  0  1  0  0  0  0  0  0  0  0  0
   18.8414   11.9444   34.8454 C   0  0  0  0  0  0  0  0  0  0  0  0
   17.4731   11.2607   34.6839 C   0  0  0  0  0  0  0  0  0  0  0  0
   17.7255   10.0889   33.7178 C   0  0  2  0  0  0  0  0  0  0  0  0
   16.8515    9.0084   33.9557 O   0  0  0  0  0  0  0  0  0  0  0  0
   19.5440    9.0267   35.1583 C   0  0  0  0  0  0  0  0  0  0  0  0
   24.0276    9.9284   34.0692 C   0  0  0  0  0  0  0  0  0  0  0  0
   23.5893   10.4811   30.6868 H   0  0  0  0  0  0  0  0  0  0  0  0
   23.8424    8.9585   31.5553 H   0  0  0  0  0  0  0  0  0  0  0  0
   25.9062    9.8658   30.4754 H   0  0  0  0  0  0  0  0  0  0  0  0
   26.0776    9.5823   32.2164 H   0  0  0  0  0  0  0  0  0  0  0  0
   25.5039   13.4643   32.5871 H   0  0  0  0  0  0  0  0  0  0  0  0
   25.8521   12.1260   33.7143 H   0  0  0  0  0  0  0  0  0  0  0  0
   23.3859   12.6505   32.0326 H   0  0  0  0  0  0  0  0  0  0  0  0
   23.5901   13.8475   34.2461 H   0  0  0  0  0  0  0  0  0  0  0  0
   23.5790   12.3023   35.0674 H   0  0  0  0  0  0  0  0  0  0  0  0
   21.4023   13.2807   33.1686 H   0  0  0  0  0  0  0  0  0  0  0  0
   21.2927   13.2864   34.9321 H   0  0  0  0  0  0  0  0  0  0  0  0
   21.5191   10.8199   34.9725 H   0  0  0  0  0  0  0  0  0  0  0  0
   21.5548   11.0906   31.9249 H   0  0  0  0  0  0  0  0  0  0  0  0
   21.7769    8.5161   33.5458 H   0  0  0  0  0  0  0  0  0  0  0  0
   21.7737    8.6566   31.7945 H   0  0  0  0  0  0  0  0  0  0  0  0
   19.5778    7.9485   32.7467 H   0  0  0  0  0  0  0  0  0  0  0  0
   19.5003    9.4097   31.7470 H   0  0  0  0  0  0  0  0  0  0  0  0
   19.5324   11.6603   32.8488 H   0  0  0  0  0  0  0  0  0  0  0  0
   18.7799   13.0157   34.6361 H   0  0  0  0  0  0  0  0  0  0  0  0
   19.2170   11.8147   35.8666 H   0  0  0  0  0  0  0  0  0  0  0  0
   16.7339   11.9525   34.2591 H   0  0  0  0  0  0  0  0  0  0  0  0
   17.0780   10.9224   35.6508 H   0  0  0  0  0  0  0  0  0  0  0  0
   17.5613   10.4419   32.6947 H   0  0  0  0  0  0  0  0  0  0  0  0
   15.9242    9.3388   33.7809 H   0  0  0  0  0  0  0  0  0  0  0  0
   19.1650    8.0000   35.1235 H   0  0  0  0  0  0  0  0  0  0  0  0
   19.1161    9.5193   36.0307 H   0  0  0  0  0  0  0  0  0  0  0  0
   20.6260    8.9571   35.3257 H   0  0  0  0  0  0  0  0  0  0  0  0
   25.1131    9.9937   34.0851 H   0  0  0  0  0  0  0  0  0  0  0  0
   23.7561    8.8760   34.0759 H   0  0  0  0  0  0  0  0  0  0  0  0
   23.6689   10.3570   35.0032 H   0  0  0  0  0  0  0  0  0  0  0  0
  1 11  1  0  0  0  0
  1  2  1  0  0  0  0
  1 22  1  0  0  0  0
  1 23  1  0  0  0  0
  2  3  1  0  0  0  0
  2 24  1  0  0  0  0
  2 25  1  0  0  0  0
  3  5  1  0  0  0  0
  3  4  2  0  0  0  0
  5  6  1  0  0  0  0
  5 26  1  0  0  0  0
  5 27  1  0  0  0  0
  6 11  1  0  0  0  0
  6  7  1  0  0  0  0
  6 28  1  6  0  0  0
  7  8  1  0  0  0  0
  7 29  1  0  0  0  0
  7 30  1  0  0  0  0
  8  9  1  0  0  0  0
  8 31  1  0  0  0  0
  8 32  1  0  0  0  0
  9 15  1  0  0  0  0
  9 10  1  0  0  0  0
  9 33  1  1  0  0  0
 10 12  1  0  0  0  0
 10 11  1  0  0  0  0
 10 34  1  6  0  0  0
 11 21  1  1  0  0  0
 12 13  1  0  0  0  0
 12 35  1  0  0  0  0
 12 36  1  0  0  0  0
 13 14  1  0  0  0  0
 13 37  1  0  0  0  0
 13 38  1  0  0  0  0
 14 20  1  1  0  0  0
 14 18  1  0  0  0  0
 14 15  1  0  0  0  0
 15 16  1  0  0  0  0
 15 39  1  6  0  0  0
 16 17  1  0  0  0  0
 16 40  1  0  0  0  0
 16 41  1  0  0  0  0
 17 18  1  0  0  0  0
 17 42  1  0  0  0  0
 17 43  1  0  0  0  0
 18 19  1  0  0  0  0
 18 44  1  6  0  0  0
 19 45  1  0  0  0  0
 20 46  1  0  0  0  0
 20 47  1  0  0  0  0
 20 48  1  0  0  0  0
 21 49  1  0  0  0  0
 21 50  1  0  0  0  0
 21 51  1  0  0  0  0
M  END
$$$$
