DHY
 OpenBabel04041913553D

 19 19  0  0  0  0  0  0  0  0999 V2000
   13.7449   37.8145   36.2300 C   0  0  0  0  0  0  0  0  0  0  0  0
   13.5700   36.3442   35.7844 C   0  0  0  0  0  0  0  0  0  0  0  0
   12.4082   36.0351   34.8776 C   0  0  0  0  0  0  0  0  0  0  0  0
   12.3532   36.7050   33.6462 C   0  0  0  0  0  0  0  0  0  0  0  0
   11.3109   36.4697   32.7728 C   0  0  0  0  0  0  0  0  0  0  0  0
   11.2034   37.1139   31.5664 O   0  0  0  0  0  0  0  0  0  0  0  0
   10.3267   35.5386   33.0854 C   0  0  0  0  0  0  0  0  0  0  0  0
    9.3667   35.3611   32.1238 O   0  0  0  0  0  0  0  0  0  0  0  0
   10.3649   34.8525   34.2644 C   0  0  0  0  0  0  0  0  0  0  0  0
   11.4090   35.0760   35.1847 C   0  0  0  0  0  0  0  0  0  0  0  0
   14.5216   37.9200   37.2485 O   0  0  0  0  0  0  0  0  0  0  0  0
   13.2052   38.7462   35.5821 O   0  0  0  0  0  0  0  0  0  0  0  0
   13.4963   35.7367   36.6932 H   0  0  0  0  0  0  0  0  0  0  0  0
   14.4855   36.0139   35.2741 H   0  0  0  0  0  0  0  0  0  0  0  0
   13.1339   37.4225   33.4193 H   0  0  0  0  0  0  0  0  0  0  0  0
   11.1812   36.4041   30.9024 H   0  0  0  0  0  0  0  0  0  0  0  0
    9.5473   36.0623   31.4630 H   0  0  0  0  0  0  0  0  0  0  0  0
    9.5761   34.1277   34.5292 H   0  0  0  0  0  0  0  0  0  0  0  0
   11.4678   34.5165   36.1179 H   0  0  0  0  0  0  0  0  0  0  0  0
  1 12  2  0  0  0  0
  1 11  1  0  0  0  0
  1  2  1  0  0  0  0
  2  3  1  0  0  0  0
  2 13  1  0  0  0  0
  2 14  1  0  0  0  0
  3 10  2  0  0  0  0
  3  4  1  0  0  0  0
  4  5  2  0  0  0  0
  4 15  1  0  0  0  0
  5  7  1  0  0  0  0
  5  6  1  0  0  0  0
  6 16  1  0  0  0  0
  7  9  2  0  0  0  0
  7  8  1  0  0  0  0
  8 17  1  0  0  0  0
  9 10  1  0  0  0  0
  9 18  1  0  0  0  0
 10 19  1  0  0  0  0
M  END
$$$$
