DHZ
 OpenBabel04041914133D

 30 31  0  0  1  0  0  0  0  0999 V2000
   35.3196   48.9830    9.0534 N   0  0  0  0  0  0  0  0  0  0  0  0
   36.1708   48.0693    8.4310 C   0  0  0  0  0  0  0  0  0  0  0  0
   37.3536   48.2628    8.1555 O   0  0  0  0  0  0  0  0  0  0  0  0
   35.6131   46.8538    8.0534 N   0  0  0  0  0  0  0  0  0  0  0  0
   34.3767   46.3256    8.5537 C   0  0  0  0  0  0  0  0  0  0  0  0
   33.5064   47.4377    8.9949 C   0  0  0  0  0  0  0  0  0  0  0  0
   33.9879   48.6662    9.2454 C   0  0  0  0  0  0  0  0  0  0  0  0
   35.9571   50.1769    9.6663 C   0  0  1  0  0  0  0  0  0  0  0  0
   35.7439   51.6332    9.1597 C   0  0  2  0  0  0  0  0  0  0  0  0
   36.6408   51.9972    8.0935 O   0  0  0  0  0  0  0  0  0  0  0  0
   36.0296   52.4285   10.4414 C   0  0  2  0  0  0  0  0  0  0  0  0
   37.4665   52.5982   10.5656 O   0  0  0  0  0  0  0  0  0  0  0  0
   35.5374   51.5071   11.5698 C   0  0  2  0  0  0  0  0  0  0  0  0
   35.6927   50.1529   11.0864 O   0  0  0  0  0  0  0  0  0  0  0  0
   34.0630   51.6358   11.9469 C   0  0  0  0  0  0  0  0  0  0  0  0
   33.3252   51.9596   10.7827 O   0  0  0  0  0  0  0  0  0  0  0  0
   36.2702   46.2198    7.6079 H   0  0  0  0  0  0  0  0  0  0  0  0
   34.5498   45.6218    9.3764 H   0  0  0  0  0  0  0  0  0  0  0  0
   33.9116   45.7556    7.7414 H   0  0  0  0  0  0  0  0  0  0  0  0
   32.4542   47.2201    9.1777 H   0  0  0  0  0  0  0  0  0  0  0  0
   33.3536   49.4446    9.6437 H   0  0  0  0  0  0  0  0  0  0  0  0
   37.0372   50.0327    9.5919 H   0  0  0  0  0  0  0  0  0  0  0  0
   34.7338   51.8685    8.8185 H   0  0  0  0  0  0  0  0  0  0  0  0
   37.5461   51.7567    8.3819 H   0  0  0  0  0  0  0  0  0  0  0  0
   35.5960   53.4418   10.4647 H   0  0  0  0  0  0  0  0  0  0  0  0
   37.6363   53.1743   11.3315 H   0  0  0  0  0  0  0  0  0  0  0  0
   36.1386   51.5966   12.4824 H   0  0  0  0  0  0  0  0  0  0  0  0
   33.9012   52.4037   12.7053 H   0  0  0  0  0  0  0  0  0  0  0  0
   33.6948   50.6758   12.3428 H   0  0  0  0  0  0  0  0  0  0  0  0
   32.3758   51.9783   11.0323 H   0  0  0  0  0  0  0  0  0  0  0  0
  1  2  1  0  0  0  0
  1  7  1  0  0  0  0
  1  8  1  0  0  0  0
  2  3  2  0  0  0  0
  2  4  1  0  0  0  0
  4  5  1  0  0  0  0
  4 17  1  0  0  0  0
  5  6  1  0  0  0  0
  5 18  1  0  0  0  0
  5 19  1  0  0  0  0
  6  7  2  0  0  0  0
  6 20  1  0  0  0  0
  7 21  1  0  0  0  0
  8  9  1  0  0  0  0
  8 14  1  0  0  0  0
  8 22  1  6  0  0  0
  9 10  1  0  0  0  0
  9 11  1  0  0  0  0
  9 23  1  6  0  0  0
 10 24  1  0  0  0  0
 11 12  1  0  0  0  0
 11 13  1  0  0  0  0
 11 25  1  1  0  0  0
 12 26  1  0  0  0  0
 13 14  1  0  0  0  0
 13 15  1  0  0  0  0
 13 27  1  1  0  0  0
 15 16  1  0  0  0  0
 15 28  1  0  0  0  0
 15 29  1  0  0  0  0
 16 30  1  0  0  0  0
M  END
$$$$
