DIH
 OpenBabel04041915493D

 36 38  0  0  1  0  0  0  0  0999 V2000
   54.9160   13.5876   44.0505 O   0  0  0  0  0  0  0  0  0  0  0  0
   54.8028   14.9153   44.5076 C   0  0  0  0  0  0  0  0  0  0  0  0
   56.1786   15.5243   44.7683 C   0  0  1  0  0  0  0  0  0  0  0  0
   57.0483   15.5211   43.4989 C   0  0  0  0  0  0  0  0  0  0  0  0
   55.9994   16.9931   45.1465 C   0  0  1  0  0  0  0  0  0  0  0  0
   57.0412   17.3707   46.0461 O   0  0  0  0  0  0  0  0  0  0  0  0
   56.1544   17.7270   43.8110 C   0  0  0  0  0  0  0  0  0  0  0  0
   57.2897   16.9726   43.1749 N   0  3  2  0  0  0  0  0  0  0  0  0
   57.5753   17.3076   41.7387 C   0  0  0  0  0  0  0  0  0  0  0  0
   56.6240   16.8232   40.6963 C   0  0  2  0  0  0  0  0  0  0  0  0
   56.7584   15.6900   39.8987 C   0  0  0  0  0  0  0  0  0  0  0  0
   55.7253   15.6574   38.9814 N   0  3  0  0  0  0  0  0  0  0  0  0
   54.9246   16.7474   39.1854 C   0  0  2  0  0  0  0  0  0  0  0  0
   53.7697   17.1533   38.4546 C   0  0  0  0  0  0  0  0  0  0  0  0
   53.2627   16.5467   37.5151 O   0  0  0  0  0  0  0  0  0  0  0  0
   53.2718   18.3454   38.9496 N   0  3  0  0  0  0  0  0  0  0  0  0
   53.8374   19.0090   40.0183 C   0  0  0  0  0  0  0  0  0  0  0  0
   54.8841   18.6422   40.7012 N   0  0  0  0  0  0  0  0  0  0  0  0
   55.4492   17.4536   40.2308 C   0  0  2  0  0  0  0  0  0  0  0  0
   54.0121   13.2300   43.9673 H   0  0  0  0  0  0  0  0  0  0  0  0
   54.2161   14.9216   45.4340 H   0  0  0  0  0  0  0  0  0  0  0  0
   54.2606   15.4948   43.7512 H   0  0  0  0  0  0  0  0  0  0  0  0
   56.6992   14.9521   45.5478 H   0  0  0  0  0  0  0  0  0  0  0  0
   56.5389   15.0535   42.6554 H   0  0  0  0  0  0  0  0  0  0  0  0
   58.0288   15.0564   43.6442 H   0  0  0  0  0  0  0  0  0  0  0  0
   55.0355   17.2194   45.6148 H   0  0  0  0  0  0  0  0  0  0  0  0
   56.7994   17.0325   46.9334 H   0  0  0  0  0  0  0  0  0  0  0  0
   56.4452   18.7750   43.9084 H   0  0  0  0  0  0  0  0  0  0  0  0
   55.2691   17.6009   43.1836 H   0  0  0  0  0  0  0  0  0  0  0  0
   58.5684   16.8875   41.5375 H   0  0  0  0  0  0  0  0  0  0  0  0
   57.6768   18.3971   41.6861 H   0  0  0  0  0  0  0  0  0  0  0  0
   57.5179   14.9167   39.8725 H   0  0  0  0  0  0  0  0  0  0  0  0
   55.5935   14.9648   38.2508 H   0  0  0  0  0  0  0  0  0  0  0  0
   52.4539   18.7113   38.4796 H   0  0  0  0  0  0  0  0  0  0  0  0
   53.3007   19.9345   40.2800 H   0  0  0  0  0  0  0  0  0  0  0  0
   58.1191   17.2612   43.7153 H   0  0  0  0  0  0  0  0  0  0  0  0
  1  2  1  0  0  0  0
  1 20  1  0  0  0  0
  2  3  1  0  0  0  0
  2 21  1  0  0  0  0
  2 22  1  0  0  0  0
  3  4  1  0  0  0  0
  3  5  1  0  0  0  0
  3 23  1  1  0  0  0
  4  8  1  0  0  0  0
  4 24  1  0  0  0  0
  4 25  1  0  0  0  0
  5  6  1  0  0  0  0
  5  7  1  0  0  0  0
  5 26  1  1  0  0  0
  6 27  1  0  0  0  0
  7  8  1  0  0  0  0
  7 28  1  0  0  0  0
  7 29  1  0  0  0  0
  8  9  1  0  0  0  0
  8 36  1  1  0  0  0
  9 30  1  0  0  0  0
  9 31  1  0  0  0  0
 10  9  1  6  0  0  0
 10 11  1  0  0  0  0
 10 19  1  0  0  0  0
 11 12  1  0  0  0  0
 11 32  1  0  0  0  0
 12 33  1  0  0  0  0
 13 12  1  6  0  0  0
 13 14  1  0  0  0  0
 13 19  1  0  0  0  0
 14 15  2  0  0  0  0
 14 16  1  0  0  0  0
 16 17  1  0  0  0  0
 16 34  1  0  0  0  0
 17 18  1  0  0  0  0
 17 35  1  0  0  0  0
 19 18  1  6  0  0  0
M  CHG  3   8   1  12   1  16   1
M  END
$$$$
