DK1
 OpenBabel04041916193D

 20 21  0  0  0  0  0  0  0  0999 V2000
    6.4018   34.6554  -19.6334 O   0  0  0  0  0  0  0  0  0  0  0  0
    6.9943   34.9467  -18.5457 C   0  0  0  0  0  0  0  0  0  0  0  0
    7.9679   34.2914  -18.0414 O   0  0  0  0  0  0  0  0  0  0  0  0
    6.5156   36.1851  -17.7603 C   0  0  0  0  0  0  0  0  0  0  0  0
    5.4797   36.9499  -18.2146 N   0  0  0  0  0  0  0  0  0  0  0  0
    5.0826   38.0241  -17.5255 C   0  0  0  0  0  0  0  0  0  0  0  0
    4.0226   38.7306  -18.0667 C   0  0  0  0  0  0  0  0  0  0  0  0
    3.5182   39.8658  -17.4482 C   0  0  0  0  0  0  0  0  0  0  0  0
    2.1950   40.7141  -18.1494 Cl  0  0  0  0  0  0  0  0  0  0  0  0
    4.0771   40.3199  -16.2663 C   0  0  0  0  0  0  0  0  0  0  0  0
    5.1477   39.6220  -15.7008 C   0  0  0  0  0  0  0  0  0  0  0  0
    5.7683   40.2887  -14.2247 Cl  0  0  0  0  0  0  0  0  0  0  0  0
    5.6774   38.4475  -16.3170 C   0  0  0  0  0  0  0  0  0  0  0  0
    6.7445   37.6331  -15.8630 C   0  0  0  0  0  0  0  0  0  0  0  0
    7.4016   37.9260  -14.6955 O   0  0  0  0  0  0  0  0  0  0  0  0
    7.1621   36.5125  -16.5755 C   0  0  0  0  0  0  0  0  0  0  0  0
    3.5868   38.3733  -18.9977 H   0  0  0  0  0  0  0  0  0  0  0  0
    3.6849   41.2109  -15.7846 H   0  0  0  0  0  0  0  0  0  0  0  0
    8.0881   37.2523  -14.5530 H   0  0  0  0  0  0  0  0  0  0  0  0
    7.9800   35.8856  -16.2333 H   0  0  0  0  0  0  0  0  0  0  0  0
  1  2  2  0  0  0  0
  2  3  1  0  0  0  0
  2  4  1  0  0  0  0
  4  5  2  0  0  0  0
  4 16  1  0  0  0  0
  5  6  1  0  0  0  0
  6  7  2  0  0  0  0
  6 13  1  0  0  0  0
  7  8  1  0  0  0  0
  7 17  1  0  0  0  0
  8  9  1  0  0  0  0
  8 10  2  0  0  0  0
 10 11  1  0  0  0  0
 10 18  1  0  0  0  0
 11 12  1  0  0  0  0
 11 13  2  0  0  0  0
 13 14  1  0  0  0  0
 14 15  1  0  0  0  0
 14 16  2  0  0  0  0
 15 19  1  0  0  0  0
 16 20  1  0  0  0  0
M  END
$$$$
