DM2
 OpenBabel04041915023D

 71 75  0  0  1  0  0  0  0  0999 V2000
   32.6532  -37.5991  -36.4735 C   0  0  0  0  0  0  0  0  0  0  0  0
   33.9329  -38.1280  -36.2754 C   0  0  0  0  0  0  0  0  0  0  0  0
   35.0380  -37.2991  -36.3722 C   0  0  0  0  0  0  0  0  0  0  0  0
   34.8771  -35.9329  -36.6587 C   0  0  0  0  0  0  0  0  0  0  0  0
   35.9556  -35.0873  -36.7610 O   0  0  0  0  0  0  0  0  0  0  0  0
   33.5525  -35.3665  -36.8644 C   0  0  0  0  0  0  0  0  0  0  0  0
   33.2391  -33.9920  -37.1565 C   0  0  0  0  0  0  0  0  0  0  0  0
   34.3155  -33.1296  -37.2846 O   0  0  0  0  0  0  0  0  0  0  0  0
   31.9056  -33.4467  -37.3376 C   0  0  0  0  0  0  0  0  0  0  0  0
   31.5947  -32.0660  -37.6204 C   0  0  0  0  0  0  0  0  0  0  0  0
   32.6837  -31.2164  -37.7620 O   0  0  0  0  0  0  0  0  0  0  0  0
   30.2805  -31.5575  -37.8103 C   0  0  0  0  0  0  0  0  0  0  0  0
   30.0331  -30.1165  -38.2481 C   0  0  1  0  0  0  0  0  0  0  0  0
   30.4808  -30.1485  -39.6036 O   0  0  0  0  0  0  0  0  0  0  0  0
   28.5452  -29.6965  -38.1917 C   0  0  0  0  0  0  0  0  0  0  0  0
   27.6475  -30.7636  -38.8342 C   0  0  2  0  0  0  0  0  0  0  0  0
   28.0966  -30.9938  -40.1837 O   0  0  0  0  0  0  0  0  0  0  0  0
   26.1345  -30.3837  -38.9697 C   0  0  0  0  0  0  0  0  0  0  0  0
   25.5234  -30.6077  -40.0037 O   0  0  0  0  0  0  0  0  0  0  0  0
   25.4528  -29.7561  -37.7490 C   0  0  0  0  0  0  0  0  0  0  0  0
   24.0627  -29.5660  -37.9128 O   0  0  0  0  0  0  0  0  0  0  0  0
   27.7795  -32.0522  -38.0065 C   0  0  0  0  0  0  0  0  0  0  0  0
   29.2246  -32.4775  -37.7634 C   0  0  0  0  0  0  0  0  0  0  0  0
   29.5109  -33.8265  -37.4660 C   0  0  0  0  0  0  0  0  0  0  0  0
   28.4154  -34.6609  -37.4157 O   0  0  0  0  0  0  0  0  0  0  0  0
   30.8296  -34.3391  -37.2521 C   0  0  0  0  0  0  0  0  0  0  0  0
   31.1327  -35.7068  -36.9742 C   0  0  0  0  0  0  0  0  0  0  0  0
   30.0625  -36.5860  -36.9076 O   0  0  0  0  0  0  0  0  0  0  0  0
   32.4392  -36.2314  -36.7662 C   0  0  0  0  0  0  0  0  0  0  0  0
   37.2748  -35.5949  -36.5474 C   0  0  0  0  0  0  0  0  0  0  0  0
   31.3854  -29.1593  -40.0584 C   0  0  1  0  0  0  0  0  0  0  0  0
   32.2676  -29.8721  -41.0933 C   0  0  0  0  0  0  0  0  0  0  0  0
   31.3633  -30.3335  -42.2405 C   0  0  2  0  0  0  0  0  0  0  0  0
   32.1811  -30.9919  -43.3099 N   0  3  0  0  0  0  0  0  0  0  0  0
   30.6456  -29.1241  -42.8488 C   0  0  2  0  0  0  0  0  0  0  0  0
   31.6722  -28.2929  -43.4237 O   0  0  0  0  0  0  0  0  0  0  0  0
   29.8419  -28.4225  -41.7423 C   0  0  1  0  0  0  0  0  0  0  0  0
   30.7161  -28.0520  -40.6634 O   0  0  0  0  0  0  0  0  0  0  0  0
   29.0929  -27.1966  -42.2451 C   0  0  0  0  0  0  0  0  0  0  0  0
   31.8111  -38.2828  -36.3831 H   0  0  0  0  0  0  0  0  0  0  0  0
   34.0620  -39.1869  -36.0421 H   0  0  0  0  0  0  0  0  0  0  0  0
   36.0167  -37.7415  -36.2073 H   0  0  0  0  0  0  0  0  0  0  0  0
   33.9609  -32.2281  -37.3995 H   0  0  0  0  0  0  0  0  0  0  0  0
   32.3888  -30.2955  -37.7465 H   0  0  0  0  0  0  0  0  0  0  0  0
   30.6105  -29.4201  -37.6295 H   0  0  0  0  0  0  0  0  0  0  0  0
   28.4170  -28.7322  -38.6981 H   0  0  0  0  0  0  0  0  0  0  0  0
   28.2544  -29.5494  -37.1412 H   0  0  0  0  0  0  0  0  0  0  0  0
   28.8938  -31.5480  -40.1313 H   0  0  0  0  0  0  0  0  0  0  0  0
   25.9043  -28.7756  -37.5688 H   0  0  0  0  0  0  0  0  0  0  0  0
   25.6009  -30.4027  -36.8805 H   0  0  0  0  0  0  0  0  0  0  0  0
   23.6995  -29.1862  -37.0921 H   0  0  0  0  0  0  0  0  0  0  0  0
   27.2343  -32.8474  -38.5271 H   0  0  0  0  0  0  0  0  0  0  0  0
   27.3166  -31.9217  -37.0186 H   0  0  0  0  0  0  0  0  0  0  0  0
   28.6689  -35.4532  -36.9004 H   0  0  0  0  0  0  0  0  0  0  0  0
   29.8511  -36.8077  -37.8360 H   0  0  0  0  0  0  0  0  0  0  0  0
   37.9776  -34.7652  -36.6593 H   0  0  0  0  0  0  0  0  0  0  0  0
   37.5352  -36.3470  -37.2978 H   0  0  0  0  0  0  0  0  0  0  0  0
   37.3938  -35.9895  -35.5333 H   0  0  0  0  0  0  0  0  0  0  0  0
   32.0146  -28.7734  -39.2496 H   0  0  0  0  0  0  0  0  0  0  0  0
   32.7707  -30.7363  -40.6445 H   0  0  0  0  0  0  0  0  0  0  0  0
   33.0488  -29.1905  -41.4549 H   0  0  0  0  0  0  0  0  0  0  0  0
   30.6473  -31.0946  -41.9071 H   0  0  0  0  0  0  0  0  0  0  0  0
   31.5767  -31.2998  -44.0825 H   0  0  0  0  0  0  0  0  0  0  0  0
   32.8340  -30.3016  -43.7259 H   0  0  0  0  0  0  0  0  0  0  0  0
   29.9848  -29.4337  -43.6642 H   0  0  0  0  0  0  0  0  0  0  0  0
   32.0225  -27.7047  -42.7228 H   0  0  0  0  0  0  0  0  0  0  0  0
   29.0850  -29.1092  -41.3567 H   0  0  0  0  0  0  0  0  0  0  0  0
   28.5077  -26.7498  -41.4332 H   0  0  0  0  0  0  0  0  0  0  0  0
   28.3987  -27.4718  -43.0469 H   0  0  0  0  0  0  0  0  0  0  0  0
   29.7714  -26.4232  -42.6146 H   0  0  0  0  0  0  0  0  0  0  0  0
   32.7066  -31.8046  -42.9761 H   0  0  0  0  0  0  0  0  0  0  0  0
  1  2  2  0  0  0  0
  1 29  1  0  0  0  0
  1 40  1  0  0  0  0
  2  3  1  0  0  0  0
  2 41  1  0  0  0  0
  3  4  2  0  0  0  0
  3 42  1  0  0  0  0
  4  5  1  0  0  0  0
  4  6  1  0  0  0  0
  5 30  1  0  0  0  0
  6  7  2  0  0  0  0
  6 29  1  0  0  0  0
  7  8  1  0  0  0  0
  7  9  1  0  0  0  0
  8 43  1  0  0  0  0
  9 10  2  0  0  0  0
  9 26  1  0  0  0  0
 10 11  1  0  0  0  0
 10 12  1  0  0  0  0
 11 44  1  0  0  0  0
 12 13  1  0  0  0  0
 12 23  2  0  0  0  0
 13 14  1  0  0  0  0
 13 15  1  0  0  0  0
 13 45  1  1  0  0  0
 14 31  1  0  0  0  0
 15 16  1  0  0  0  0
 15 46  1  0  0  0  0
 15 47  1  0  0  0  0
 16 17  1  6  0  0  0
 16 18  1  0  0  0  0
 16 22  1  0  0  0  0
 17 48  1  0  0  0  0
 18 19  2  0  0  0  0
 18 20  1  0  0  0  0
 20 21  1  0  0  0  0
 20 49  1  0  0  0  0
 20 50  1  0  0  0  0
 21 51  1  0  0  0  0
 22 23  1  0  0  0  0
 22 52  1  0  0  0  0
 22 53  1  0  0  0  0
 23 24  1  0  0  0  0
 24 25  1  0  0  0  0
 24 26  2  0  0  0  0
 25 54  1  0  0  0  0
 26 27  1  0  0  0  0
 27 28  1  0  0  0  0
 27 29  2  0  0  0  0
 28 55  1  0  0  0  0
 30 56  1  0  0  0  0
 30 57  1  0  0  0  0
 30 58  1  0  0  0  0
 31 32  1  0  0  0  0
 31 38  1  0  0  0  0
 31 59  1  1  0  0  0
 32 33  1  0  0  0  0
 32 60  1  0  0  0  0
 32 61  1  0  0  0  0
 33 34  1  0  0  0  0
 33 35  1  0  0  0  0
 33 62  1  1  0  0  0
 34 63  1  0  0  0  0
 34 64  1  0  0  0  0
 34 71  1  0  0  0  0
 35 36  1  0  0  0  0
 35 37  1  0  0  0  0
 35 65  1  6  0  0  0
 36 66  1  0  0  0  0
 37 38  1  0  0  0  0
 37 39  1  0  0  0  0
 37 67  1  1  0  0  0
 39 68  1  0  0  0  0
 39 69  1  0  0  0  0
 39 70  1  0  0  0  0
M  CHG  1  34   1
M  END
$$$$
