DMP
 OpenBabel04041915443D

 80 84  0  0  1  0  0  0  0  0999 V2000
   -8.8628   15.3648   27.9641 C   0  0  0  0  0  0  0  0  0  0  0  0
   -8.7735   17.6600   26.9431 C   0  0  1  0  0  0  0  0  0  0  0  0
  -10.1866   18.2302   27.1805 C   0  0  1  0  0  0  0  0  0  0  0  0
  -10.6579   17.9916   28.5997 C   0  0  2  0  0  0  0  0  0  0  0  0
  -10.9229   16.4939   28.9076 C   0  0  1  0  0  0  0  0  0  0  0  0
   -8.0116   15.6049   25.7755 C   0  0  0  0  0  0  0  0  0  0  0  0
   -8.4747   16.0506   24.4206 C   0  0  0  0  0  0  0  0  0  0  0  0
   -9.8250   16.2693   24.1181 C   0  0  0  0  0  0  0  0  0  0  0  0
  -10.1892   16.6347   22.8119 C   0  0  0  0  0  0  0  0  0  0  0  0
   -9.1991   16.7675   21.8205 C   0  0  0  0  0  0  0  0  0  0  0  0
   -7.8561   16.5237   22.1387 C   0  0  0  0  0  0  0  0  0  0  0  0
   -7.4886   16.1737   23.4441 C   0  0  0  0  0  0  0  0  0  0  0  0
   -9.5869   17.1045   20.3975 C   0  0  0  0  0  0  0  0  0  0  0  0
   -7.6985   18.2779   27.8395 C   0  0  0  0  0  0  0  0  0  0  0  0
   -6.3276   18.1280   27.2155 C   0  0  0  0  0  0  0  0  0  0  0  0
   -5.3437   17.3602   27.8540 C   0  0  0  0  0  0  0  0  0  0  0  0
   -4.0971   17.1755   27.2430 C   0  0  0  0  0  0  0  0  0  0  0  0
   -3.8373   17.7547   25.9968 C   0  0  0  0  0  0  0  0  0  0  0  0
   -4.8083   18.5241   25.3541 C   0  0  0  0  0  0  0  0  0  0  0  0
   -6.0501   18.7197   25.9683 C   0  0  0  0  0  0  0  0  0  0  0  0
  -12.0094   15.8740   28.0244 C   0  0  0  0  0  0  0  0  0  0  0  0
  -12.5803   14.6215   28.6552 C   0  0  0  0  0  0  0  0  0  0  0  0
  -12.2276   13.3555   28.1523 C   0  0  0  0  0  0  0  0  0  0  0  0
  -12.6928   12.1922   28.7837 C   0  0  0  0  0  0  0  0  0  0  0  0
  -13.5084   12.2986   29.9135 C   0  0  0  0  0  0  0  0  0  0  0  0
  -13.8710   13.5543   30.4153 C   0  0  0  0  0  0  0  0  0  0  0  0
  -13.4112   14.7205   29.7831 C   0  0  0  0  0  0  0  0  0  0  0  0
   -9.6263   14.7552   30.1074 C   0  0  0  0  0  0  0  0  0  0  0  0
   -9.7219   15.3659   31.4714 C   0  0  0  0  0  0  0  0  0  0  0  0
  -10.3537   14.5920   32.4366 C   0  0  0  0  0  0  0  0  0  0  0  0
  -10.4123   15.0341   33.7575 C   0  0  0  0  0  0  0  0  0  0  0  0
   -9.8494   16.2728   34.1139 C   0  0  0  0  0  0  0  0  0  0  0  0
   -9.2047   17.0484   33.1311 C   0  0  0  0  0  0  0  0  0  0  0  0
   -9.1421   16.5973   31.8034 C   0  0  0  0  0  0  0  0  0  0  0  0
   -9.8904   16.7299   35.5456 C   0  0  0  0  0  0  0  0  0  0  0  0
   -8.7258   16.2000   26.8971 N   0  0  0  0  0  0  0  0  0  0  0  0
   -9.7006   15.6887   28.9921 N   0  0  0  0  0  0  0  0  0  0  0  0
   -8.2238   14.2907   27.9817 O   0  0  0  0  0  0  0  0  0  0  0  0
  -10.0740   19.6370   26.9062 O   0  0  0  0  0  0  0  0  0  0  0  0
  -11.9049   18.6651   28.8300 O   0  0  0  0  0  0  0  0  0  0  0  0
   -8.7361   18.1225   19.8757 O   0  0  0  0  0  0  0  0  0  0  0  0
  -11.1903   16.5177   36.0900 O   0  0  0  0  0  0  0  0  0  0  0  0
   -8.5725   18.0030   25.9318 H   0  0  0  0  0  0  0  0  0  0  0  0
  -10.9128   17.8097   26.4747 H   0  0  0  0  0  0  0  0  0  0  0  0
   -9.9223   18.4018   29.3016 H   0  0  0  0  0  0  0  0  0  0  0  0
  -11.3234   16.5495   29.9133 H   0  0  0  0  0  0  0  0  0  0  0  0
   -8.1516   14.5184   25.8082 H   0  0  0  0  0  0  0  0  0  0  0  0
   -6.9377   15.8124   25.8645 H   0  0  0  0  0  0  0  0  0  0  0  0
  -10.5868   16.1823   24.8903 H   0  0  0  0  0  0  0  0  0  0  0  0
  -11.2403   16.8116   22.5720 H   0  0  0  0  0  0  0  0  0  0  0  0
   -7.0892   16.6129   21.3694 H   0  0  0  0  0  0  0  0  0  0  0  0
   -6.4403   16.0125   23.6843 H   0  0  0  0  0  0  0  0  0  0  0  0
  -10.6207   17.4648   20.3711 H   0  0  0  0  0  0  0  0  0  0  0  0
   -9.5006   16.2083   19.7724 H   0  0  0  0  0  0  0  0  0  0  0  0
   -7.7075   17.7895   28.8203 H   0  0  0  0  0  0  0  0  0  0  0  0
   -7.8925   19.3476   27.9929 H   0  0  0  0  0  0  0  0  0  0  0  0
   -5.5479   16.8940   28.8200 H   0  0  0  0  0  0  0  0  0  0  0  0
   -3.3320   16.5801   27.7402 H   0  0  0  0  0  0  0  0  0  0  0  0
   -2.8684   17.6086   25.5261 H   0  0  0  0  0  0  0  0  0  0  0  0
   -4.6040   18.9738   24.3820 H   0  0  0  0  0  0  0  0  0  0  0  0
   -6.8130   19.3162   25.4629 H   0  0  0  0  0  0  0  0  0  0  0  0
  -11.5976   15.6219   27.0418 H   0  0  0  0  0  0  0  0  0  0  0  0
  -12.8337   16.5838   27.8736 H   0  0  0  0  0  0  0  0  0  0  0  0
  -11.5714   13.2762   27.2818 H   0  0  0  0  0  0  0  0  0  0  0  0
  -12.4156   11.2140   28.3920 H   0  0  0  0  0  0  0  0  0  0  0  0
  -13.8686   11.3964   30.4040 H   0  0  0  0  0  0  0  0  0  0  0  0
  -14.5121   13.6301   31.2936 H   0  0  0  0  0  0  0  0  0  0  0  0
  -13.6866   15.6985   30.1823 H   0  0  0  0  0  0  0  0  0  0  0  0
   -8.6664   14.2307   30.0777 H   0  0  0  0  0  0  0  0  0  0  0  0
  -10.4166   14.0048   30.0138 H   0  0  0  0  0  0  0  0  0  0  0  0
  -10.8165   13.6346   32.1714 H   0  0  0  0  0  0  0  0  0  0  0  0
  -10.9039   14.4205   34.5118 H   0  0  0  0  0  0  0  0  0  0  0  0
   -8.7516   18.0050   33.3996 H   0  0  0  0  0  0  0  0  0  0  0  0
   -8.6617   17.2091   31.0440 H   0  0  0  0  0  0  0  0  0  0  0  0
   -9.6568   17.7982   35.5983 H   0  0  0  0  0  0  0  0  0  0  0  0
   -9.1551   16.1683   36.1328 H   0  0  0  0  0  0  0  0  0  0  0  0
  -10.9522   20.0520   26.9991 H   0  0  0  0  0  0  0  0  0  0  0  0
  -11.7646   19.6222   28.7232 H   0  0  0  0  0  0  0  0  0  0  0  0
   -9.0090   18.3156   18.9659 H   0  0  0  0  0  0  0  0  0  0  0  0
  -11.1917   16.8207   37.0105 H   0  0  0  0  0  0  0  0  0  0  0  0
  1 38  2  0  0  0  0
  1 37  1  0  0  0  0
  1 36  1  0  0  0  0
  2 36  1  0  0  0  0
  2 14  1  0  0  0  0
  2  3  1  0  0  0  0
  2 43  1  6  0  0  0
  3 39  1  0  0  0  0
  3  4  1  0  0  0  0
  3 44  1  6  0  0  0
  4 40  1  0  0  0  0
  4  5  1  0  0  0  0
  4 45  1  1  0  0  0
  5 37  1  0  0  0  0
  5 21  1  0  0  0  0
  5 46  1  1  0  0  0
  6 36  1  0  0  0  0
  6  7  1  0  0  0  0
  6 47  1  0  0  0  0
  6 48  1  0  0  0  0
  7 12  2  0  0  0  0
  7  8  1  0  0  0  0
  8  9  2  0  0  0  0
  8 49  1  0  0  0  0
  9 10  1  0  0  0  0
  9 50  1  0  0  0  0
 10 13  1  0  0  0  0
 10 11  2  0  0  0  0
 11 12  1  0  0  0  0
 11 51  1  0  0  0  0
 12 52  1  0  0  0  0
 13 41  1  0  0  0  0
 13 53  1  0  0  0  0
 13 54  1  0  0  0  0
 14 15  1  0  0  0  0
 14 55  1  0  0  0  0
 14 56  1  0  0  0  0
 15 20  2  0  0  0  0
 15 16  1  0  0  0  0
 16 17  2  0  0  0  0
 16 57  1  0  0  0  0
 17 18  1  0  0  0  0
 17 58  1  0  0  0  0
 18 19  2  0  0  0  0
 18 59  1  0  0  0  0
 19 20  1  0  0  0  0
 19 60  1  0  0  0  0
 20 61  1  0  0  0  0
 21 22  1  0  0  0  0
 21 62  1  0  0  0  0
 21 63  1  0  0  0  0
 22 27  2  0  0  0  0
 22 23  1  0  0  0  0
 23 24  2  0  0  0  0
 23 64  1  0  0  0  0
 24 25  1  0  0  0  0
 24 65  1  0  0  0  0
 25 26  2  0  0  0  0
 25 66  1  0  0  0  0
 26 27  1  0  0  0  0
 26 67  1  0  0  0  0
 27 68  1  0  0  0  0
 28 37  1  0  0  0  0
 28 29  1  0  0  0  0
 28 69  1  0  0  0  0
 28 70  1  0  0  0  0
 29 34  2  0  0  0  0
 29 30  1  0  0  0  0
 30 31  2  0  0  0  0
 30 71  1  0  0  0  0
 31 32  1  0  0  0  0
 31 72  1  0  0  0  0
 32 35  1  0  0  0  0
 32 33  2  0  0  0  0
 33 34  1  0  0  0  0
 33 73  1  0  0  0  0
 34 74  1  0  0  0  0
 35 42  1  0  0  0  0
 35 75  1  0  0  0  0
 35 76  1  0  0  0  0
 39 77  1  0  0  0  0
 40 78  1  0  0  0  0
 41 79  1  0  0  0  0
 42 80  1  0  0  0  0
M  END
$$$$
