DMP
 OpenBabel04041916363D

 80 84  0  0  1  0  0  0  0  0999 V2000
   -8.8090   15.2471   27.8182 C   0  0  0  0  0  0  0  0  0  0  0  0
   -8.7446   17.5823   26.8467 C   0  0  1  0  0  0  0  0  0  0  0  0
  -10.1426   18.1420   27.1189 C   0  0  1  0  0  0  0  0  0  0  0  0
  -10.6183   17.8594   28.5346 C   0  0  2  0  0  0  0  0  0  0  0  0
  -10.8569   16.3708   28.8125 C   0  0  1  0  0  0  0  0  0  0  0  0
   -7.9156   15.5692   25.6458 C   0  0  0  0  0  0  0  0  0  0  0  0
   -8.3933   15.9844   24.2915 C   0  0  0  0  0  0  0  0  0  0  0  0
   -9.7555   16.0051   23.9628 C   0  0  0  0  0  0  0  0  0  0  0  0
  -10.1565   16.3216   22.6735 C   0  0  0  0  0  0  0  0  0  0  0  0
   -9.1948   16.5883   21.6893 C   0  0  0  0  0  0  0  0  0  0  0  0
   -7.8365   16.5712   22.0264 C   0  0  0  0  0  0  0  0  0  0  0  0
   -7.4321   16.2770   23.3157 C   0  0  0  0  0  0  0  0  0  0  0  0
   -9.5914   16.8948   20.2830 C   0  0  0  0  0  0  0  0  0  0  0  0
   -7.6562   18.1762   27.7787 C   0  0  0  0  0  0  0  0  0  0  0  0
   -6.2814   18.0997   27.1597 C   0  0  0  0  0  0  0  0  0  0  0  0
   -5.3494   17.1672   27.6295 C   0  0  0  0  0  0  0  0  0  0  0  0
   -4.1115   17.0391   27.0033 C   0  0  0  0  0  0  0  0  0  0  0  0
   -3.7932   17.8449   25.9102 C   0  0  0  0  0  0  0  0  0  0  0  0
   -4.7156   18.7753   25.4347 C   0  0  0  0  0  0  0  0  0  0  0  0
   -5.9548   18.9045   26.0575 C   0  0  0  0  0  0  0  0  0  0  0  0
  -11.9711   15.7281   27.9385 C   0  0  0  0  0  0  0  0  0  0  0  0
  -12.5336   14.4783   28.5853 C   0  0  0  0  0  0  0  0  0  0  0  0
  -13.2673   14.5641   29.7810 C   0  0  0  0  0  0  0  0  0  0  0  0
  -13.6119   13.4093   30.4829 C   0  0  0  0  0  0  0  0  0  0  0  0
  -13.2523   12.1588   29.9842 C   0  0  0  0  0  0  0  0  0  0  0  0
  -12.5712   12.0631   28.7706 C   0  0  0  0  0  0  0  0  0  0  0  0
  -12.2174   13.2153   28.0710 C   0  0  0  0  0  0  0  0  0  0  0  0
   -9.4884   14.6577   30.0215 C   0  0  0  0  0  0  0  0  0  0  0  0
   -9.6206   15.2784   31.3806 C   0  0  0  0  0  0  0  0  0  0  0  0
  -10.2851   14.5605   32.3798 C   0  0  0  0  0  0  0  0  0  0  0  0
  -10.3357   15.0554   33.6748 C   0  0  0  0  0  0  0  0  0  0  0  0
   -9.7292   16.2776   33.9969 C   0  0  0  0  0  0  0  0  0  0  0  0
   -9.0775   17.0015   32.9914 C   0  0  0  0  0  0  0  0  0  0  0  0
   -9.0158   16.5004   31.6949 C   0  0  0  0  0  0  0  0  0  0  0  0
   -9.7569   16.7783   35.4114 C   0  0  0  0  0  0  0  0  0  0  0  0
   -8.7055   16.1041   26.7465 N   0  0  0  0  0  0  0  0  0  0  0  0
   -9.6000   15.5851   28.8969 N   0  0  0  0  0  0  0  0  0  0  0  0
   -8.1806   14.1829   27.8181 O   0  0  0  0  0  0  0  0  0  0  0  0
  -10.0813   19.5660   26.9073 O   0  0  0  0  0  0  0  0  0  0  0  0
  -11.8443   18.5731   28.7733 O   0  0  0  0  0  0  0  0  0  0  0  0
   -9.0243   18.1427   19.9192 O   0  0  0  0  0  0  0  0  0  0  0  0
  -11.0872   16.7469   35.8708 O   0  0  0  0  0  0  0  0  0  0  0  0
   -8.5184   17.9687   25.8462 H   0  0  0  0  0  0  0  0  0  0  0  0
  -10.8570   17.7436   26.3887 H   0  0  0  0  0  0  0  0  0  0  0  0
   -9.8929   18.2497   29.2583 H   0  0  0  0  0  0  0  0  0  0  0  0
  -11.2700   16.3843   29.8287 H   0  0  0  0  0  0  0  0  0  0  0  0
   -7.9192   14.4736   25.6439 H   0  0  0  0  0  0  0  0  0  0  0  0
   -6.8719   15.8679   25.7922 H   0  0  0  0  0  0  0  0  0  0  0  0
  -10.5073   15.7862   24.7202 H   0  0  0  0  0  0  0  0  0  0  0  0
  -11.2169   16.3569   22.4342 H   0  0  0  0  0  0  0  0  0  0  0  0
   -7.0773   16.7891   21.2736 H   0  0  0  0  0  0  0  0  0  0  0  0
   -6.3738   16.2702   23.5694 H   0  0  0  0  0  0  0  0  0  0  0  0
  -10.6786   16.9572   20.1707 H   0  0  0  0  0  0  0  0  0  0  0  0
   -9.2121   16.1079   19.6169 H   0  0  0  0  0  0  0  0  0  0  0  0
   -7.6521   17.6736   28.7506 H   0  0  0  0  0  0  0  0  0  0  0  0
   -7.8568   19.2352   27.9910 H   0  0  0  0  0  0  0  0  0  0  0  0
   -5.6010   16.5093   28.4588 H   0  0  0  0  0  0  0  0  0  0  0  0
   -3.3996   16.3016   27.3629 H   0  0  0  0  0  0  0  0  0  0  0  0
   -2.8261   17.7443   25.4269 H   0  0  0  0  0  0  0  0  0  0  0  0
   -4.4737   19.3947   24.5749 H   0  0  0  0  0  0  0  0  0  0  0  0
   -6.6786   19.6165   25.6628 H   0  0  0  0  0  0  0  0  0  0  0  0
  -11.5980   15.4921   26.9361 H   0  0  0  0  0  0  0  0  0  0  0  0
  -12.8062   16.4271   27.7966 H   0  0  0  0  0  0  0  0  0  0  0  0
  -13.5351   15.5351   30.1957 H   0  0  0  0  0  0  0  0  0  0  0  0
  -14.1391   13.4866   31.4308 H   0  0  0  0  0  0  0  0  0  0  0  0
  -13.5010   11.2594   30.5408 H   0  0  0  0  0  0  0  0  0  0  0  0
  -12.2903   11.0870   28.3821 H   0  0  0  0  0  0  0  0  0  0  0  0
  -11.6502   13.1246   27.1465 H   0  0  0  0  0  0  0  0  0  0  0  0
   -8.5088   14.1643   30.0117 H   0  0  0  0  0  0  0  0  0  0  0  0
  -10.2306   13.8645   29.8848 H   0  0  0  0  0  0  0  0  0  0  0  0
  -10.7587   13.6083   32.1516 H   0  0  0  0  0  0  0  0  0  0  0  0
  -10.8552   14.4843   34.4454 H   0  0  0  0  0  0  0  0  0  0  0  0
   -8.6055   17.9534   33.2184 H   0  0  0  0  0  0  0  0  0  0  0  0
   -8.4883   17.0671   30.9321 H   0  0  0  0  0  0  0  0  0  0  0  0
   -9.3795   17.8062   35.4686 H   0  0  0  0  0  0  0  0  0  0  0  0
   -9.1235   16.1380   36.0380 H   0  0  0  0  0  0  0  0  0  0  0  0
  -10.9919   19.9044   26.9037 H   0  0  0  0  0  0  0  0  0  0  0  0
  -11.6144   19.5154   28.8453 H   0  0  0  0  0  0  0  0  0  0  0  0
   -9.2831   18.3027   19.0007 H   0  0  0  0  0  0  0  0  0  0  0  0
  -11.0670   17.0712   36.7959 H   0  0  0  0  0  0  0  0  0  0  0  0
  1 38  2  0  0  0  0
  1 37  1  0  0  0  0
  1 36  1  0  0  0  0
  2 36  1  0  0  0  0
  2 14  1  0  0  0  0
  2  3  1  0  0  0  0
  2 43  1  6  0  0  0
  3 39  1  0  0  0  0
  3  4  1  0  0  0  0
  3 44  1  6  0  0  0
  4 40  1  0  0  0  0
  4  5  1  0  0  0  0
  4 45  1  1  0  0  0
  5 37  1  0  0  0  0
  5 21  1  0  0  0  0
  5 46  1  1  0  0  0
  6 36  1  0  0  0  0
  6  7  1  0  0  0  0
  6 47  1  0  0  0  0
  6 48  1  0  0  0  0
  7 12  2  0  0  0  0
  7  8  1  0  0  0  0
  8  9  2  0  0  0  0
  8 49  1  0  0  0  0
  9 10  1  0  0  0  0
  9 50  1  0  0  0  0
 10 13  1  0  0  0  0
 10 11  2  0  0  0  0
 11 12  1  0  0  0  0
 11 51  1  0  0  0  0
 12 52  1  0  0  0  0
 13 41  1  0  0  0  0
 13 53  1  0  0  0  0
 13 54  1  0  0  0  0
 14 15  1  0  0  0  0
 14 55  1  0  0  0  0
 14 56  1  0  0  0  0
 15 20  2  0  0  0  0
 15 16  1  0  0  0  0
 16 17  2  0  0  0  0
 16 57  1  0  0  0  0
 17 18  1  0  0  0  0
 17 58  1  0  0  0  0
 18 19  2  0  0  0  0
 18 59  1  0  0  0  0
 19 20  1  0  0  0  0
 19 60  1  0  0  0  0
 20 61  1  0  0  0  0
 21 22  1  0  0  0  0
 21 62  1  0  0  0  0
 21 63  1  0  0  0  0
 22 27  2  0  0  0  0
 22 23  1  0  0  0  0
 23 24  2  0  0  0  0
 23 64  1  0  0  0  0
 24 25  1  0  0  0  0
 24 65  1  0  0  0  0
 25 26  2  0  0  0  0
 25 66  1  0  0  0  0
 26 27  1  0  0  0  0
 26 67  1  0  0  0  0
 27 68  1  0  0  0  0
 28 37  1  0  0  0  0
 28 29  1  0  0  0  0
 28 69  1  0  0  0  0
 28 70  1  0  0  0  0
 29 34  2  0  0  0  0
 29 30  1  0  0  0  0
 30 31  2  0  0  0  0
 30 71  1  0  0  0  0
 31 32  1  0  0  0  0
 31 72  1  0  0  0  0
 32 35  1  0  0  0  0
 32 33  2  0  0  0  0
 33 34  1  0  0  0  0
 33 73  1  0  0  0  0
 34 74  1  0  0  0  0
 35 42  1  0  0  0  0
 35 75  1  0  0  0  0
 35 76  1  0  0  0  0
 39 77  1  0  0  0  0
 40 78  1  0  0  0  0
 41 79  1  0  0  0  0
 42 80  1  0  0  0  0
M  END
$$$$
