DMQ
 OpenBabel04041914193D

 76 80  0  0  1  0  0  0  0  0999 V2000
   -8.9088   15.2800   27.7913 C   0  0  0  0  0  0  0  0  0  0  0  0
   -8.4630   14.1314   27.7441 O   0  0  0  0  0  0  0  0  0  0  0  0
   -8.7364   16.1479   26.7243 N   0  0  0  0  0  0  0  0  0  0  0  0
   -8.0921   15.5894   25.5118 C   0  0  0  0  0  0  0  0  0  0  0  0
   -8.6753   17.6169   26.8641 C   0  0  1  0  0  0  0  0  0  0  0  0
  -10.0401   18.2616   27.1512 C   0  0  2  0  0  0  0  0  0  0  0  0
   -9.9763   19.6958   26.9594 O   0  0  0  0  0  0  0  0  0  0  0  0
  -10.5933   18.0031   28.5431 C   0  0  1  0  0  0  0  0  0  0  0  0
  -11.8327   18.7242   28.6793 O   0  0  0  0  0  0  0  0  0  0  0  0
  -10.8145   16.5219   28.8896 C   0  0  2  0  0  0  0  0  0  0  0  0
   -9.5445   15.7489   28.9389 N   0  0  0  0  0  0  0  0  0  0  0  0
   -9.3768   14.8708   30.1098 C   0  0  0  0  0  0  0  0  0  0  0  0
   -8.7657   16.0379   24.2340 C   0  0  0  0  0  0  0  0  0  0  0  0
  -10.1551   15.9118   24.1154 C   0  0  0  0  0  0  0  0  0  0  0  0
  -10.8093   16.3355   22.9656 C   0  0  0  0  0  0  0  0  0  0  0  0
  -10.0677   16.8854   21.9119 C   0  0  0  0  0  0  0  0  0  0  0  0
   -8.6834   17.0414   22.0101 C   0  0  0  0  0  0  0  0  0  0  0  0
   -7.9523   17.4625   20.8901 N   0  0  0  0  0  0  0  0  0  0  0  0
   -8.0328   16.5643   23.1543 C   0  0  0  0  0  0  0  0  0  0  0  0
   -7.5124   18.0893   27.7807 C   0  0  0  0  0  0  0  0  0  0  0  0
   -6.2086   18.1469   27.0115 C   0  0  0  0  0  0  0  0  0  0  0  0
   -5.1982   17.2098   27.2506 C   0  0  0  0  0  0  0  0  0  0  0  0
   -4.0490   17.2033   26.4604 C   0  0  0  0  0  0  0  0  0  0  0  0
   -3.9008   18.1300   25.4277 C   0  0  0  0  0  0  0  0  0  0  0  0
   -4.8953   19.0747   25.1905 C   0  0  0  0  0  0  0  0  0  0  0  0
   -6.0396   19.0913   25.9847 C   0  0  0  0  0  0  0  0  0  0  0  0
  -11.9696   15.8386   28.0986 C   0  0  0  0  0  0  0  0  0  0  0  0
  -12.5135   14.5994   28.7781 C   0  0  0  0  0  0  0  0  0  0  0  0
  -13.3556   14.6959   29.9024 C   0  0  0  0  0  0  0  0  0  0  0  0
  -13.7812   13.5500   30.5781 C   0  0  0  0  0  0  0  0  0  0  0  0
  -13.3744   12.2869   30.1398 C   0  0  0  0  0  0  0  0  0  0  0  0
  -12.5599   12.1769   29.0153 C   0  0  0  0  0  0  0  0  0  0  0  0
  -12.1352   13.3199   28.3361 C   0  0  0  0  0  0  0  0  0  0  0  0
   -9.4772   15.5583   31.4522 C   0  0  0  0  0  0  0  0  0  0  0  0
  -10.4288   15.1350   32.3992 C   0  0  0  0  0  0  0  0  0  0  0  0
  -10.4747   15.6894   33.6821 C   0  0  0  0  0  0  0  0  0  0  0  0
  -11.5294   15.3836   34.5502 N   0  0  0  0  0  0  0  0  0  0  0  0
   -9.5932   16.7277   33.9895 C   0  0  0  0  0  0  0  0  0  0  0  0
   -8.6573   17.1752   33.0536 C   0  0  0  0  0  0  0  0  0  0  0  0
   -8.5990   16.5937   31.7893 C   0  0  0  0  0  0  0  0  0  0  0  0
   -8.0989   14.4936   25.5210 H   0  0  0  0  0  0  0  0  0  0  0  0
   -7.0371   15.8889   25.5172 H   0  0  0  0  0  0  0  0  0  0  0  0
   -8.4459   18.0039   25.8636 H   0  0  0  0  0  0  0  0  0  0  0  0
  -10.7629   17.9174   26.4029 H   0  0  0  0  0  0  0  0  0  0  0  0
   -9.2904   20.0656   27.5409 H   0  0  0  0  0  0  0  0  0  0  0  0
   -9.9221   18.4477   29.2875 H   0  0  0  0  0  0  0  0  0  0  0  0
  -11.6907   19.5920   28.2510 H   0  0  0  0  0  0  0  0  0  0  0  0
  -11.1886   16.5758   29.9196 H   0  0  0  0  0  0  0  0  0  0  0  0
   -8.3863   14.3988   30.0756 H   0  0  0  0  0  0  0  0  0  0  0  0
  -10.0994   14.0537   30.0374 H   0  0  0  0  0  0  0  0  0  0  0  0
  -10.7338   15.4825   24.9274 H   0  0  0  0  0  0  0  0  0  0  0  0
  -11.8816   16.2273   22.8772 H   0  0  0  0  0  0  0  0  0  0  0  0
  -10.5905   17.1857   21.0076 H   0  0  0  0  0  0  0  0  0  0  0  0
   -7.0159   17.7980   21.0863 H   0  0  0  0  0  0  0  0  0  0  0  0
   -8.4667   18.0758   20.2647 H   0  0  0  0  0  0  0  0  0  0  0  0
   -6.9486   16.6153   23.2148 H   0  0  0  0  0  0  0  0  0  0  0  0
   -7.4022   17.4433   28.6587 H   0  0  0  0  0  0  0  0  0  0  0  0
   -7.6845   19.0947   28.1797 H   0  0  0  0  0  0  0  0  0  0  0  0
   -5.3159   16.4557   28.0266 H   0  0  0  0  0  0  0  0  0  0  0  0
   -3.2758   16.4599   26.6371 H   0  0  0  0  0  0  0  0  0  0  0  0
   -3.0113   18.1092   24.8037 H   0  0  0  0  0  0  0  0  0  0  0  0
   -4.7890   19.7876   24.3761 H   0  0  0  0  0  0  0  0  0  0  0  0
   -6.8178   19.8209   25.7698 H   0  0  0  0  0  0  0  0  0  0  0  0
  -11.6571   15.5961   27.0783 H   0  0  0  0  0  0  0  0  0  0  0  0
  -12.8139   16.5324   27.9875 H   0  0  0  0  0  0  0  0  0  0  0  0
  -13.6614   15.6703   30.2704 H   0  0  0  0  0  0  0  0  0  0  0  0
  -14.4145   13.6416   31.4550 H   0  0  0  0  0  0  0  0  0  0  0  0
  -13.6843   11.3973   30.6792 H   0  0  0  0  0  0  0  0  0  0  0  0
  -12.2359   11.1981   28.6737 H   0  0  0  0  0  0  0  0  0  0  0  0
  -11.4779   13.2127   27.4793 H   0  0  0  0  0  0  0  0  0  0  0  0
  -11.1398   14.3568   32.1292 H   0  0  0  0  0  0  0  0  0  0  0  0
  -11.3415   15.5833   35.5271 H   0  0  0  0  0  0  0  0  0  0  0  0
  -11.9426   14.4678   34.4081 H   0  0  0  0  0  0  0  0  0  0  0  0
   -9.6294   17.2019   34.9662 H   0  0  0  0  0  0  0  0  0  0  0  0
   -7.9781   17.9826   33.3124 H   0  0  0  0  0  0  0  0  0  0  0  0
   -7.8674   16.9474   31.0678 H   0  0  0  0  0  0  0  0  0  0  0  0
  1 11  1  0  0  0  0
  1  3  1  0  0  0  0
  1  2  2  0  0  0  0
  3  5  1  0  0  0  0
  3  4  1  0  0  0  0
  4 13  1  0  0  0  0
  4 41  1  0  0  0  0
  4 42  1  0  0  0  0
  5 20  1  0  0  0  0
  5  6  1  0  0  0  0
  5 43  1  6  0  0  0
  6  8  1  0  0  0  0
  6  7  1  0  0  0  0
  6 44  1  6  0  0  0
  7 45  1  0  0  0  0
  8 10  1  0  0  0  0
  8  9  1  0  0  0  0
  8 46  1  1  0  0  0
  9 47  1  0  0  0  0
 10 27  1  0  0  0  0
 10 11  1  0  0  0  0
 10 48  1  1  0  0  0
 11 12  1  0  0  0  0
 12 34  1  0  0  0  0
 12 49  1  0  0  0  0
 12 50  1  0  0  0  0
 13 19  2  0  0  0  0
 13 14  1  0  0  0  0
 14 15  2  0  0  0  0
 14 51  1  0  0  0  0
 15 16  1  0  0  0  0
 15 52  1  0  0  0  0
 16 17  2  0  0  0  0
 16 53  1  0  0  0  0
 17 19  1  0  0  0  0
 17 18  1  0  0  0  0
 18 54  1  0  0  0  0
 18 55  1  0  0  0  0
 19 56  1  0  0  0  0
 20 21  1  0  0  0  0
 20 57  1  0  0  0  0
 20 58  1  0  0  0  0
 21 26  2  0  0  0  0
 21 22  1  0  0  0  0
 22 23  2  0  0  0  0
 22 59  1  0  0  0  0
 23 24  1  0  0  0  0
 23 60  1  0  0  0  0
 24 25  2  0  0  0  0
 24 61  1  0  0  0  0
 25 26  1  0  0  0  0
 25 62  1  0  0  0  0
 26 63  1  0  0  0  0
 27 28  1  0  0  0  0
 27 64  1  0  0  0  0
 27 65  1  0  0  0  0
 28 33  2  0  0  0  0
 28 29  1  0  0  0  0
 29 30  2  0  0  0  0
 29 66  1  0  0  0  0
 30 31  1  0  0  0  0
 30 67  1  0  0  0  0
 31 32  2  0  0  0  0
 31 68  1  0  0  0  0
 32 33  1  0  0  0  0
 32 69  1  0  0  0  0
 33 70  1  0  0  0  0
 34 40  2  0  0  0  0
 34 35  1  0  0  0  0
 35 36  2  0  0  0  0
 35 71  1  0  0  0  0
 36 38  1  0  0  0  0
 36 37  1  0  0  0  0
 37 72  1  0  0  0  0
 37 73  1  0  0  0  0
 38 39  2  0  0  0  0
 38 74  1  0  0  0  0
 39 40  1  0  0  0  0
 39 75  1  0  0  0  0
 40 76  1  0  0  0  0
M  END
$$$$
