DOG
 OpenBabel04041915343D

 62 66  0  0  1  0  0  0  0  0999 V2000
   15.2620  -21.2440   37.4339 O   0  0  0  0  0  0  0  0  0  0  0  0
   14.6063  -22.2998   37.4729 C   0  0  0  0  0  0  0  0  0  0  0  0
   13.4649  -22.6328   36.6231 C   0  0  0  0  0  0  0  0  0  0  0  0
   14.8460  -23.3329   38.3121 O   0  0  0  0  0  0  0  0  0  0  0  0
   13.9215  -24.3885   38.0535 C   0  0  0  0  0  0  0  0  0  0  0  0
   13.0706  -23.8589   36.9812 C   0  0  0  0  0  0  0  0  0  0  0  0
   11.9070  -24.6332   36.4496 C   0  0  1  0  0  0  0  0  0  0  0  0
   12.1230  -26.1705   36.3737 C   0  0  0  0  0  0  0  0  0  0  0  0
   10.5546  -24.4439   37.2031 C   0  0  1  0  0  0  0  0  0  0  0  0
   10.5479  -23.2680   38.1907 C   0  0  0  0  0  0  0  0  0  0  0  0
    9.4709  -24.2045   36.1251 C   0  0  2  0  0  0  0  0  0  0  0  0
    9.6198  -22.9125   35.5259 O   0  0  0  0  0  0  0  0  0  0  0  0
   10.3197  -25.8027   37.9098 C   0  0  1  0  0  0  0  0  0  0  0  0
   10.8392  -26.8187   36.8998 C   0  0  0  0  0  0  0  0  0  0  0  0
   11.1919  -25.9112   39.0493 O   0  0  0  0  0  0  0  0  0  0  0  0
    8.8511  -26.0055   38.3609 C   0  0  2  0  0  0  0  0  0  0  0  0
    8.6216  -27.4267   38.8891 C   0  0  0  0  0  0  0  0  0  0  0  0
    7.7904  -25.6700   37.2834 C   0  0  2  0  0  0  0  0  0  0  0  0
    8.0588  -24.2971   36.6671 C   0  0  0  0  0  0  0  0  0  0  0  0
    6.3386  -25.8150   37.8530 C   0  0  2  0  0  0  0  0  0  0  0  0
    6.0912  -24.7880   38.9789 C   0  0  0  0  0  0  0  0  0  0  0  0
    6.1251  -27.2551   38.4013 C   0  0  2  0  0  0  0  0  0  0  0  0
    7.2070  -27.6519   39.4100 C   0  0  0  0  0  0  0  0  0  0  0  0
    6.0840  -28.3125   37.2751 C   0  0  0  0  0  0  0  0  0  0  0  0
    5.0745  -27.9783   36.1894 C   0  0  1  0  0  0  0  0  0  0  0  0
    3.7721  -28.1046   36.7522 O   0  0  0  0  0  0  0  0  0  0  0  0
    5.2887  -26.5773   35.6476 C   0  0  0  0  0  0  0  0  0  0  0  0
    5.2751  -25.5507   36.7688 C   0  0  0  0  0  0  0  0  0  0  0  0
   13.0281  -21.9868   35.8758 H   0  0  0  0  0  0  0  0  0  0  0  0
   13.3478  -24.6156   38.9517 H   0  0  0  0  0  0  0  0  0  0  0  0
   14.4637  -25.2780   37.7275 H   0  0  0  0  0  0  0  0  0  0  0  0
   11.7860  -24.2877   35.4167 H   0  0  0  0  0  0  0  0  0  0  0  0
   12.9697  -26.5025   36.9855 H   0  0  0  0  0  0  0  0  0  0  0  0
   12.3159  -26.4911   35.3444 H   0  0  0  0  0  0  0  0  0  0  0  0
   10.7289  -22.3214   37.6709 H   0  0  0  0  0  0  0  0  0  0  0  0
   11.3208  -23.3807   38.9512 H   0  0  0  0  0  0  0  0  0  0  0  0
    9.5841  -23.1909   38.7034 H   0  0  0  0  0  0  0  0  0  0  0  0
    9.5880  -24.9578   35.3386 H   0  0  0  0  0  0  0  0  0  0  0  0
    9.4933  -22.2360   36.2111 H   0  0  0  0  0  0  0  0  0  0  0  0
   11.0533  -27.7843   37.3725 H   0  0  0  0  0  0  0  0  0  0  0  0
   10.1274  -26.9830   36.0853 H   0  0  0  0  0  0  0  0  0  0  0  0
   11.1771  -26.8286   39.3741 H   0  0  0  0  0  0  0  0  0  0  0  0
    8.6899  -25.3226   39.2026 H   0  0  0  0  0  0  0  0  0  0  0  0
    9.3264  -27.6289   39.7007 H   0  0  0  0  0  0  0  0  0  0  0  0
    8.8197  -28.1451   38.0857 H   0  0  0  0  0  0  0  0  0  0  0  0
    7.8955  -26.4061   36.4789 H   0  0  0  0  0  0  0  0  0  0  0  0
    7.3740  -24.0869   35.8363 H   0  0  0  0  0  0  0  0  0  0  0  0
    7.9184  -23.4951   37.3986 H   0  0  0  0  0  0  0  0  0  0  0  0
    5.0764  -24.8904   39.3787 H   0  0  0  0  0  0  0  0  0  0  0  0
    6.2004  -23.7629   38.6093 H   0  0  0  0  0  0  0  0  0  0  0  0
    6.7866  -24.9200   39.8113 H   0  0  0  0  0  0  0  0  0  0  0  0
    5.1516  -27.2789   38.9116 H   0  0  0  0  0  0  0  0  0  0  0  0
    7.0765  -27.0724   40.3289 H   0  0  0  0  0  0  0  0  0  0  0  0
    7.0943  -28.7124   39.6664 H   0  0  0  0  0  0  0  0  0  0  0  0
    5.8245  -29.2852   37.7114 H   0  0  0  0  0  0  0  0  0  0  0  0
    7.0739  -28.4050   36.8188 H   0  0  0  0  0  0  0  0  0  0  0  0
    5.1706  -28.6879   35.3620 H   0  0  0  0  0  0  0  0  0  0  0  0
    3.1144  -27.8776   36.0732 H   0  0  0  0  0  0  0  0  0  0  0  0
    4.4950  -26.3370   34.9308 H   0  0  0  0  0  0  0  0  0  0  0  0
    6.2474  -26.5373   35.1195 H   0  0  0  0  0  0  0  0  0  0  0  0
    5.4218  -24.5605   36.3343 H   0  0  0  0  0  0  0  0  0  0  0  0
    4.2831  -25.5654   37.2347 H   0  0  0  0  0  0  0  0  0  0  0  0
  1  2  2  0  0  0  0
  2  3  1  0  0  0  0
  2  4  1  0  0  0  0
  3  6  2  0  0  0  0
  3 29  1  0  0  0  0
  4  5  1  0  0  0  0
  5  6  1  0  0  0  0
  5 30  1  0  0  0  0
  5 31  1  0  0  0  0
  6  7  1  0  0  0  0
  7  8  1  0  0  0  0
  7  9  1  0  0  0  0
  7 32  1  6  0  0  0
  8 14  1  0  0  0  0
  8 33  1  0  0  0  0
  8 34  1  0  0  0  0
  9 10  1  1  0  0  0
  9 11  1  0  0  0  0
  9 13  1  0  0  0  0
 10 35  1  0  0  0  0
 10 36  1  0  0  0  0
 10 37  1  0  0  0  0
 11 12  1  0  0  0  0
 11 19  1  0  0  0  0
 11 38  1  6  0  0  0
 12 39  1  0  0  0  0
 13 14  1  0  0  0  0
 13 15  1  1  0  0  0
 13 16  1  0  0  0  0
 14 40  1  0  0  0  0
 14 41  1  0  0  0  0
 15 42  1  0  0  0  0
 16 17  1  0  0  0  0
 16 18  1  0  0  0  0
 16 43  1  1  0  0  0
 17 23  1  0  0  0  0
 17 44  1  0  0  0  0
 17 45  1  0  0  0  0
 18 19  1  0  0  0  0
 18 20  1  0  0  0  0
 18 46  1  6  0  0  0
 19 47  1  0  0  0  0
 19 48  1  0  0  0  0
 20 21  1  1  0  0  0
 20 22  1  0  0  0  0
 20 28  1  0  0  0  0
 21 49  1  0  0  0  0
 21 50  1  0  0  0  0
 21 51  1  0  0  0  0
 22 23  1  0  0  0  0
 22 24  1  0  0  0  0
 22 52  1  1  0  0  0
 23 53  1  0  0  0  0
 23 54  1  0  0  0  0
 24 25  1  0  0  0  0
 24 55  1  0  0  0  0
 24 56  1  0  0  0  0
 25 26  1  0  0  0  0
 25 27  1  0  0  0  0
 25 57  1  6  0  0  0
 26 58  1  0  0  0  0
 27 28  1  0  0  0  0
 27 59  1  0  0  0  0
 27 60  1  0  0  0  0
 28 61  1  0  0  0  0
 28 62  1  0  0  0  0
M  END
$$$$
