DPB
 OpenBabel04041916333D

 45 48  0  0  1  0  0  0  0  0999 V2000
   15.8189   41.6561   23.9635 C   0  0  0  0  0  0  0  0  0  0  0  0
   14.4470   41.8911   23.7287 C   0  0  0  0  0  0  0  0  0  0  0  0
   13.7393   41.0560   22.8333 C   0  0  0  0  0  0  0  0  0  0  0  0
   14.4482   40.0003   22.1393 C   0  0  0  0  0  0  0  0  0  0  0  0
   15.8214   39.7817   22.3911 C   0  0  0  0  0  0  0  0  0  0  0  0
   16.5096   40.6099   23.3087 C   0  0  0  0  0  0  0  0  0  0  0  0
    9.4477   38.6752   27.0935 C   0  0  0  0  0  0  0  0  0  0  0  0
   10.0463   39.8629   26.6266 N   0  3  0  0  0  0  0  0  0  0  0  0
   11.2518   40.3430   27.1489 C   0  0  0  0  0  0  0  0  0  0  0  0
   11.8893   39.7322   28.1509 C   0  0  0  0  0  0  0  0  0  0  0  0
   11.2667   38.4647   28.6886 C   0  0  0  0  0  0  0  0  0  0  0  0
   10.0688   38.0433   28.1041 N   0  3  0  0  0  0  0  0  0  0  0  0
    8.3763   38.1941   26.6840 O   0  0  0  0  0  0  0  0  0  0  0  0
   11.7173   37.8240   29.5804 O   0  0  0  0  0  0  0  0  0  0  0  0
   13.1906   40.2154   28.7766 C   0  0  0  0  0  0  0  0  0  0  0  0
    9.3311   40.5139   25.5533 C   0  0  2  0  0  0  0  0  0  0  0  0
    9.4485   39.7030   24.3869 O   0  0  0  0  0  0  0  0  0  0  0  0
   10.1098   41.8944   23.7087 C   0  0  1  0  0  0  0  0  0  0  0  0
    9.4803   40.6230   23.2875 C   0  0  1  0  0  0  0  0  0  0  0  0
    9.7243   41.9244   25.1554 C   0  0  0  0  0  0  0  0  0  0  0  0
   10.2398   40.1408   22.1046 C   0  0  0  0  0  0  0  0  0  0  0  0
   11.5422   41.8949   23.7228 O   0  0  0  0  0  0  0  0  0  0  0  0
   12.2140   41.3636   22.5556 C   0  0  2  0  0  0  0  0  0  0  0  0
   11.6336   40.1071   22.1705 O   0  0  0  0  0  0  0  0  0  0  0  0
   12.1464   42.6556   21.0509 P   0  0  0  0  0  0  0  0  0  0  0  0
   12.6989   41.7858   19.9455 O   0  0  0  0  0  0  0  0  0  0  0  0
   13.0576   43.8096   21.4798 O   0  0  0  0  0  0  0  0  0  0  0  0
   10.6727   43.0489   20.8769 O   0  0  0  0  0  0  0  0  0  0  0  0
   16.3094   42.3260   24.6709 H   0  0  0  0  0  0  0  0  0  0  0  0
   13.9262   42.7204   24.2237 H   0  0  0  0  0  0  0  0  0  0  0  0
   13.9274   39.3577   21.4048 H   0  0  0  0  0  0  0  0  0  0  0  0
   16.3410   38.9712   21.8641 H   0  0  0  0  0  0  0  0  0  0  0  0
   17.5732   40.4316   23.4963 H   0  0  0  0  0  0  0  0  0  0  0  0
   11.7143   41.2652   26.7454 H   0  0  0  0  0  0  0  0  0  0  0  0
    9.6551   37.1858   28.4651 H   0  0  0  0  0  0  0  0  0  0  0  0
   13.5361   41.1449   28.2878 H   0  0  0  0  0  0  0  0  0  0  0  0
   14.0151   39.4938   28.6792 H   0  0  0  0  0  0  0  0  0  0  0  0
   13.0941   40.4526   29.8471 H   0  0  0  0  0  0  0  0  0  0  0  0
    8.2643   40.5655   25.8327 H   0  0  0  0  0  0  0  0  0  0  0  0
    9.6415   42.7318   23.1450 H   0  0  0  0  0  0  0  0  0  0  0  0
    8.4259   40.8179   23.0325 H   0  0  0  0  0  0  0  0  0  0  0  0
   10.5835   42.2637   25.7070 H   0  0  0  0  0  0  0  0  0  0  0  0
    8.8827   42.5964   25.3105 H   0  0  0  0  0  0  0  0  0  0  0  0
    9.9158   40.7870   21.3043 H   0  0  0  0  0  0  0  0  0  0  0  0
    9.9143   39.1207   21.9780 H   0  0  0  0  0  0  0  0  0  0  0  0
  1  2  2  0  0  0  0
  1  6  1  0  0  0  0
  1 29  1  0  0  0  0
  2  3  1  0  0  0  0
  2 30  1  0  0  0  0
  3  4  2  0  0  0  0
  4  5  1  0  0  0  0
  4 31  1  0  0  0  0
  5  6  2  0  0  0  0
  5 32  1  0  0  0  0
  6 33  1  0  0  0  0
  7  8  1  0  0  0  0
  7 12  1  0  0  0  0
  7 13  2  0  0  0  0
  8  9  1  0  0  0  0
  8 16  1  0  0  0  0
  9 10  2  0  0  0  0
  9 34  1  0  0  0  0
 10 11  1  0  0  0  0
 10 15  1  0  0  0  0
 11 12  1  0  0  0  0
 11 14  2  0  0  0  0
 12 35  1  0  0  0  0
 15 36  1  0  0  0  0
 15 37  1  0  0  0  0
 15 38  1  0  0  0  0
 16 17  1  0  0  0  0
 16 20  1  0  0  0  0
 16 39  1  1  0  0  0
 17 19  1  0  0  0  0
 18 19  1  0  0  0  0
 18 20  1  0  0  0  0
 18 22  1  0  0  0  0
 18 40  1  6  0  0  0
 19 21  1  0  0  0  0
 19 41  1  6  0  0  0
 20 42  1  0  0  0  0
 20 43  1  0  0  0  0
 21 24  1  0  0  0  0
 21 44  1  0  0  0  0
 21 45  1  0  0  0  0
 22 23  1  0  0  0  0
 23  3  1  1  0  0  0
 23 24  1  0  0  0  0
 23 25  1  0  0  0  0
 25 26  2  0  0  0  0
 25 27  1  0  0  0  0
 25 28  1  0  0  0  0
M  CHG  2   8   1  12   1
M  END
$$$$
