DPS
 OpenBabel04041914123D

 64 68  0  0  1  0  0  0  0  0999 V2000
   25.4719   51.2753   -2.4063 N   0  0  0  0  0  0  0  0  0  0  0  0
   27.6536   50.2450   -1.9020 C   0  0  0  0  0  0  0  0  0  0  0  0
   28.6075   49.7605   -0.9929 C   0  0  0  0  0  0  0  0  0  0  0  0
   28.2860   49.6636    0.3535 C   0  0  0  0  0  0  0  0  0  0  0  0
   27.0126   50.0385    0.7840 C   0  0  0  0  0  0  0  0  0  0  0  0
   32.5457   44.3045    0.6521 N   0  3  0  0  0  0  0  0  0  0  0  0
   28.9799   46.6651    2.0578 C   0  0  2  0  0  0  0  0  0  0  0  0
   20.9743   54.5151   -6.9152 C   0  0  0  0  0  0  0  0  0  0  0  0
   23.6193   52.4578   -4.2203 C   0  0  1  0  0  0  0  0  0  0  0  0
   21.2717   55.1090   -5.6854 C   0  0  0  0  0  0  0  0  0  0  0  0
   29.0143   49.6226    2.8448 O   0  0  0  0  0  0  0  0  0  0  0  0
   30.7587   49.9802    1.0711 O   0  0  0  0  0  0  0  0  0  0  0  0
   26.3670   50.6678   -1.5081 C   0  0  0  0  0  0  0  0  0  0  0  0
   26.0709   50.5166   -0.1393 C   0  0  0  0  0  0  0  0  0  0  0  0
   29.5680   49.3379    1.5269 S   0  0  0  0  0  0  0  0  0  0  0  0
   25.0117   52.1025   -4.7196 C   0  0  0  0  0  0  0  0  0  0  0  0
   23.4661   52.7019   -2.7320 C   0  0  0  0  0  0  0  0  0  0  0  0
   24.1135   51.5725   -1.9432 C   0  0  0  0  0  0  0  0  0  0  0  0
   25.6987   51.0652   -3.8383 C   0  0  0  0  0  0  0  0  0  0  0  0
   22.1641   54.4899   -4.8060 C   0  0  0  0  0  0  0  0  0  0  0  0
   22.7647   53.2713   -5.1591 C   0  0  0  0  0  0  0  0  0  0  0  0
   22.4383   52.6864   -6.3971 C   0  0  0  0  0  0  0  0  0  0  0  0
   21.5516   53.3006   -7.2710 C   0  0  0  0  0  0  0  0  0  0  0  0
   29.9287   47.7097    1.5746 N   0  0  0  0  0  0  0  0  0  0  0  0
   29.7738   45.5461    2.7586 C   0  0  0  0  0  0  0  0  0  0  0  0
   28.0515   46.1085    0.9571 C   0  0  0  0  0  0  0  0  0  0  0  0
   26.8954   45.7569    1.3332 O   0  0  0  0  0  0  0  0  0  0  0  0
   28.5313   46.1029   -0.2156 O   0  0  0  0  0  0  0  0  0  0  0  0
   30.5030   41.4598   -0.6815 C   0  0  0  0  0  0  0  0  0  0  0  0
   31.6456   42.2701   -0.5663 C   0  0  0  0  0  0  0  0  0  0  0  0
   31.6052   43.3451    0.3365 C   0  0  2  0  0  0  0  0  0  0  0  0
   30.4694   43.6240    1.1040 C   0  0  2  0  0  0  0  0  0  0  0  0
   29.3374   42.7871    0.9695 C   0  0  0  0  0  0  0  0  0  0  0  0
   29.3665   41.7094    0.0797 C   0  0  0  0  0  0  0  0  0  0  0  0
   32.0455   45.1673    1.5909 C   0  0  0  0  0  0  0  0  0  0  0  0
   30.7397   44.8045    1.8658 C   0  0  1  0  0  0  0  0  0  0  0  0
   27.9649   50.2751   -2.9386 H   0  0  0  0  0  0  0  0  0  0  0  0
   29.5863   49.4544   -1.3566 H   0  0  0  0  0  0  0  0  0  0  0  0
   26.7289   49.9599    1.8308 H   0  0  0  0  0  0  0  0  0  0  0  0
   33.4695   44.3688    0.2409 H   0  0  0  0  0  0  0  0  0  0  0  0
   28.3374   47.1360    2.8178 H   0  0  0  0  0  0  0  0  0  0  0  0
   20.2902   55.0039   -7.6019 H   0  0  0  0  0  0  0  0  0  0  0  0
   23.1016   51.4688   -4.3020 H   0  0  0  0  0  0  0  0  0  0  0  0
   20.8081   56.0525   -5.4125 H   0  0  0  0  0  0  0  0  0  0  0  0
   25.0894   50.7565    0.2582 H   0  0  0  0  0  0  0  0  0  0  0  0
   25.6741   52.9653   -4.8784 H   0  0  0  0  0  0  0  0  0  0  0  0
   24.9015   51.6307   -5.7079 H   0  0  0  0  0  0  0  0  0  0  0  0
   23.8340   53.6761   -2.3800 H   0  0  0  0  0  0  0  0  0  0  0  0
   22.3880   52.6772   -2.5050 H   0  0  0  0  0  0  0  0  0  0  0  0
   24.1251   51.9332   -0.9133 H   0  0  0  0  0  0  0  0  0  0  0  0
   23.4769   50.6767   -1.9807 H   0  0  0  0  0  0  0  0  0  0  0  0
   25.3992   50.0515   -4.1417 H   0  0  0  0  0  0  0  0  0  0  0  0
   26.7576   51.1758   -4.0779 H   0  0  0  0  0  0  0  0  0  0  0  0
   22.3686   54.9504   -3.8426 H   0  0  0  0  0  0  0  0  0  0  0  0
   22.8655   51.7198   -6.6647 H   0  0  0  0  0  0  0  0  0  0  0  0
   21.3169   52.8276   -8.2210 H   0  0  0  0  0  0  0  0  0  0  0  0
   30.7567   47.3823    1.0765 H   0  0  0  0  0  0  0  0  0  0  0  0
   29.0831   44.8301    3.2177 H   0  0  0  0  0  0  0  0  0  0  0  0
   30.3515   45.9854    3.5880 H   0  0  0  0  0  0  0  0  0  0  0  0
   30.5016   40.6269   -1.3792 H   0  0  0  0  0  0  0  0  0  0  0  0
   32.5216   42.0648   -1.1724 H   0  0  0  0  0  0  0  0  0  0  0  0
   28.4363   42.9997    1.5399 H   0  0  0  0  0  0  0  0  0  0  0  0
   28.4826   41.0796   -0.0229 H   0  0  0  0  0  0  0  0  0  0  0  0
   32.6187   46.0069    1.9619 H   0  0  0  0  0  0  0  0  0  0  0  0
  1 19  1  0  0  0  0
  1 18  1  0  0  0  0
  1 13  1  0  0  0  0
  2 13  1  0  0  0  0
  2  3  2  0  0  0  0
  2 37  1  0  0  0  0
  3  4  1  0  0  0  0
  3 38  1  0  0  0  0
  4 15  1  0  0  0  0
  4  5  2  0  0  0  0
  5 14  1  0  0  0  0
  5 39  1  0  0  0  0
  6 35  1  0  0  0  0
  6 40  1  0  0  0  0
  7 24  1  0  0  0  0
  7 25  1  0  0  0  0
  7 26  1  0  0  0  0
  7 41  1  1  0  0  0
  8 10  1  0  0  0  0
  8 23  1  0  0  0  0
  8 42  1  0  0  0  0
  9 17  1  0  0  0  0
  9 16  1  0  0  0  0
  9 21  1  0  0  0  0
  9 43  1  6  0  0  0
 10 20  1  0  0  0  0
 10 44  1  0  0  0  0
 11 15  2  0  0  0  0
 12 15  2  0  0  0  0
 13 14  2  0  0  0  0
 14 45  1  0  0  0  0
 15 24  1  0  0  0  0
 16 19  1  0  0  0  0
 16 46  1  0  0  0  0
 16 47  1  0  0  0  0
 17 18  1  0  0  0  0
 17 48  1  0  0  0  0
 17 49  1  0  0  0  0
 18 50  1  0  0  0  0
 18 51  1  0  0  0  0
 19 52  1  0  0  0  0
 19 53  1  0  0  0  0
 20 21  1  0  0  0  0
 20 54  1  0  0  0  0
 21 22  1  0  0  0  0
 22 23  1  0  0  0  0
 22 55  1  0  0  0  0
 23 56  1  0  0  0  0
 24 57  1  0  0  0  0
 25 58  1  0  0  0  0
 25 59  1  0  0  0  0
 26 28  2  0  0  0  0
 26 27  1  0  0  0  0
 29 30  1  0  0  0  0
 29 34  1  0  0  0  0
 29 60  1  0  0  0  0
 30 31  1  0  0  0  0
 30 61  1  0  0  0  0
 31 32  1  0  0  0  0
 31  6  1  6  0  0  0
 32 36  1  0  0  0  0
 32 33  1  6  0  0  0
 33 34  1  0  0  0  0
 33 62  1  0  0  0  0
 34 63  1  0  0  0  0
 35 36  1  0  0  0  0
 35 64  1  0  0  0  0
 36 25  1  6  0  0  0
M  CHG  1   6   1
M  END
$$$$
