DPZ
 OpenBabel04041914313D

 22 23  0  0  0  0  0  0  0  0999 V2000
   15.8523   17.0442   24.3036 N   0  3  0  0  0  0  0  0  0  0  0  0
   15.4178   16.8325   23.0151 C   0  0  0  0  0  0  0  0  0  0  0  0
   14.2610   16.4791   22.8039 O   0  0  0  0  0  0  0  0  0  0  0  0
   16.4013   17.0500   21.9194 C   0  0  0  0  0  0  0  0  0  0  0  0
   16.0532   16.8619   20.5647 C   0  0  0  0  0  0  0  0  0  0  0  0
   17.0248   17.0884   19.5750 C   0  0  0  0  0  0  0  0  0  0  0  0
   18.3240   17.4877   19.8952 C   0  0  0  0  0  0  0  0  0  0  0  0
   18.6534   17.6662   21.2341 C   0  0  0  0  0  0  0  0  0  0  0  0
   17.7002   17.4495   22.2441 C   0  0  0  0  0  0  0  0  0  0  0  0
   18.0966   17.6543   23.6529 C   0  0  0  0  0  0  0  0  0  0  0  0
   19.2326   18.0044   23.9576 O   0  0  0  0  0  0  0  0  0  0  0  0
   17.1399   17.4347   24.6111 N   0  3  0  0  0  0  0  0  0  0  0  0
   19.2599   17.7048   18.9023 N   0  0  0  0  0  0  0  0  0  0  0  0
   14.7814   16.4833   20.1572 N   0  0  0  0  0  0  0  0  0  0  0  0
   15.1845   16.8995   25.0548 H   0  0  0  0  0  0  0  0  0  0  0  0
   16.7586   16.9502   18.5292 H   0  0  0  0  0  0  0  0  0  0  0  0
   19.6595   17.9770   21.5073 H   0  0  0  0  0  0  0  0  0  0  0  0
   17.4022   17.5750   25.5861 H   0  0  0  0  0  0  0  0  0  0  0  0
   19.0263   17.5691   17.9279 H   0  0  0  0  0  0  0  0  0  0  0  0
   20.2003   17.9979   19.1306 H   0  0  0  0  0  0  0  0  0  0  0  0
   14.0762   16.3019   20.8731 H   0  0  0  0  0  0  0  0  0  0  0  0
   14.5470   16.3324   19.1870 H   0  0  0  0  0  0  0  0  0  0  0  0
  1 12  1  0  0  0  0
  1  2  1  0  0  0  0
  1 15  1  0  0  0  0
  2  4  1  0  0  0  0
  2  3  2  0  0  0  0
  4  9  2  0  0  0  0
  4  5  1  0  0  0  0
  5 14  1  0  0  0  0
  5  6  2  0  0  0  0
  6  7  1  0  0  0  0
  6 16  1  0  0  0  0
  7 13  1  0  0  0  0
  7  8  2  0  0  0  0
  8  9  1  0  0  0  0
  8 17  1  0  0  0  0
  9 10  1  0  0  0  0
 10 12  1  0  0  0  0
 10 11  2  0  0  0  0
 12 18  1  0  0  0  0
 13 19  1  0  0  0  0
 13 20  1  0  0  0  0
 14 21  1  0  0  0  0
 14 22  1  0  0  0  0
M  CHG  2   1   1  12   1
M  END
$$$$
