DTX
 OpenBabel04041915343D

 61 65  0  0  1  0  0  0  0  0999 V2000
   14.7180  -21.1988   36.8388 O   0  0  0  0  0  0  0  0  0  0  0  0
   14.0860  -22.2318   36.9712 C   0  0  0  0  0  0  0  0  0  0  0  0
   12.9377  -22.6118   36.1472 C   0  0  0  0  0  0  0  0  0  0  0  0
   14.3222  -23.1957   37.8908 O   0  0  0  0  0  0  0  0  0  0  0  0
   13.3548  -24.2378   37.7326 C   0  0  0  0  0  0  0  0  0  0  0  0
   12.4961  -23.7819   36.6120 C   0  0  0  0  0  0  0  0  0  0  0  0
   11.2702  -24.5134   36.1322 C   0  0  1  0  0  0  0  0  0  0  0  0
   11.4880  -26.0455   36.0264 C   0  0  0  0  0  0  0  0  0  0  0  0
    9.9644  -24.3343   36.9981 C   0  0  2  0  0  0  0  0  0  0  0  0
    8.7553  -24.1219   36.0424 C   0  0  0  0  0  0  0  0  0  0  0  0
    7.4006  -24.3070   36.7262 C   0  0  0  0  0  0  0  0  0  0  0  0
   10.0204  -23.1300   37.9621 C   0  0  0  0  0  0  0  0  0  0  0  0
    9.8328  -25.6984   37.7317 C   0  0  1  0  0  0  0  0  0  0  0  0
   10.2464  -26.6962   36.6361 C   0  0  0  0  0  0  0  0  0  0  0  0
   10.8237  -25.7681   38.7674 O   0  0  0  0  0  0  0  0  0  0  0  0
    8.4460  -25.9283   38.3834 C   0  0  2  0  0  0  0  0  0  0  0  0
    8.3628  -27.3107   39.0653 C   0  0  0  0  0  0  0  0  0  0  0  0
    7.2769  -25.6893   37.3942 C   0  0  1  0  0  0  0  0  0  0  0  0
    5.8701  -25.9548   38.0496 C   0  0  2  0  0  0  0  0  0  0  0  0
    4.7117  -25.8390   37.0186 C   0  0  0  0  0  0  0  0  0  0  0  0
    5.5579  -24.9258   39.1664 C   0  0  0  0  0  0  0  0  0  0  0  0
    5.8490  -27.4021   38.6382 C   0  0  2  0  0  0  0  0  0  0  0  0
    6.9885  -27.6289   39.6401 C   0  0  0  0  0  0  0  0  0  0  0  0
    5.8848  -28.4844   37.5307 C   0  0  0  0  0  0  0  0  0  0  0  0
    4.7862  -28.2980   36.4847 C   0  0  2  0  0  0  0  0  0  0  0  0
    4.7847  -26.8864   35.9095 C   0  0  0  0  0  0  0  0  0  0  0  0
    3.5127  -28.5469   37.0773 O   0  0  0  0  0  0  0  0  0  0  0  0
   12.5424  -21.9867   35.3688 H   0  0  0  0  0  0  0  0  0  0  0  0
   12.8151  -24.3489   38.6734 H   0  0  0  0  0  0  0  0  0  0  0  0
   13.8916  -25.1634   37.5035 H   0  0  0  0  0  0  0  0  0  0  0  0
   11.0635  -24.1504   35.1138 H   0  0  0  0  0  0  0  0  0  0  0  0
   12.3623  -26.3845   36.5892 H   0  0  0  0  0  0  0  0  0  0  0  0
   11.6431  -26.3663   34.9914 H   0  0  0  0  0  0  0  0  0  0  0  0
    8.8040  -24.8118   35.1902 H   0  0  0  0  0  0  0  0  0  0  0  0
    8.7983  -23.1166   35.6029 H   0  0  0  0  0  0  0  0  0  0  0  0
    6.6292  -24.1863   35.9583 H   0  0  0  0  0  0  0  0  0  0  0  0
    7.2419  -23.5056   37.4535 H   0  0  0  0  0  0  0  0  0  0  0  0
   10.1384  -22.1924   37.4064 H   0  0  0  0  0  0  0  0  0  0  0  0
   10.8430  -23.1990   38.6778 H   0  0  0  0  0  0  0  0  0  0  0  0
    9.1076  -23.0398   38.5576 H   0  0  0  0  0  0  0  0  0  0  0  0
   10.4987  -27.6868   37.0274 H   0  0  0  0  0  0  0  0  0  0  0  0
    9.4801  -26.8259   35.8655 H   0  0  0  0  0  0  0  0  0  0  0  0
   10.9036  -26.6943   39.0530 H   0  0  0  0  0  0  0  0  0  0  0  0
    8.3602  -25.1932   39.1947 H   0  0  0  0  0  0  0  0  0  0  0  0
    9.0858  -27.3639   39.8878 H   0  0  0  0  0  0  0  0  0  0  0  0
    8.6450  -28.0998   38.3605 H   0  0  0  0  0  0  0  0  0  0  0  0
    7.4041  -26.4174   36.5862 H   0  0  0  0  0  0  0  0  0  0  0  0
    4.6732  -24.8371   36.5777 H   0  0  0  0  0  0  0  0  0  0  0  0
    3.7526  -25.9576   37.5428 H   0  0  0  0  0  0  0  0  0  0  0  0
    6.3154  -24.9033   39.9538 H   0  0  0  0  0  0  0  0  0  0  0  0
    4.6003  -25.1541   39.6497 H   0  0  0  0  0  0  0  0  0  0  0  0
    5.4738  -23.9105   38.7646 H   0  0  0  0  0  0  0  0  0  0  0  0
    4.9081  -27.5389   39.1894 H   0  0  0  0  0  0  0  0  0  0  0  0
    6.8233  -27.0184   40.5356 H   0  0  0  0  0  0  0  0  0  0  0  0
    6.9793  -28.6696   39.9874 H   0  0  0  0  0  0  0  0  0  0  0  0
    5.7776  -29.4699   38.0010 H   0  0  0  0  0  0  0  0  0  0  0  0
    6.8542  -28.4895   37.0198 H   0  0  0  0  0  0  0  0  0  0  0  0
    4.9166  -29.0234   35.6739 H   0  0  0  0  0  0  0  0  0  0  0  0
    5.6757  -26.7264   35.2936 H   0  0  0  0  0  0  0  0  0  0  0  0
    3.9170  -26.7534   35.2502 H   0  0  0  0  0  0  0  0  0  0  0  0
    3.5444  -29.4272   37.4890 H   0  0  0  0  0  0  0  0  0  0  0  0
  1  2  2  0  0  0  0
  2  3  1  0  0  0  0
  2  4  1  0  0  0  0
  3  6  2  0  0  0  0
  3 28  1  0  0  0  0
  4  5  1  0  0  0  0
  5  6  1  0  0  0  0
  5 29  1  0  0  0  0
  5 30  1  0  0  0  0
  6  7  1  0  0  0  0
  7  8  1  0  0  0  0
  7  9  1  0  0  0  0
  7 31  1  6  0  0  0
  8 14  1  0  0  0  0
  8 32  1  0  0  0  0
  8 33  1  0  0  0  0
  9 10  1  0  0  0  0
  9 12  1  1  0  0  0
  9 13  1  0  0  0  0
 10 11  1  0  0  0  0
 10 34  1  0  0  0  0
 10 35  1  0  0  0  0
 11 18  1  0  0  0  0
 11 36  1  0  0  0  0
 11 37  1  0  0  0  0
 12 38  1  0  0  0  0
 12 39  1  0  0  0  0
 12 40  1  0  0  0  0
 13 14  1  0  0  0  0
 13 15  1  1  0  0  0
 13 16  1  0  0  0  0
 14 41  1  0  0  0  0
 14 42  1  0  0  0  0
 15 43  1  0  0  0  0
 16 17  1  0  0  0  0
 16 18  1  0  0  0  0
 16 44  1  1  0  0  0
 17 23  1  0  0  0  0
 17 45  1  0  0  0  0
 17 46  1  0  0  0  0
 18 19  1  0  0  0  0
 18 47  1  6  0  0  0
 19 20  1  0  0  0  0
 19 21  1  1  0  0  0
 19 22  1  0  0  0  0
 20 26  1  0  0  0  0
 20 48  1  0  0  0  0
 20 49  1  0  0  0  0
 21 50  1  0  0  0  0
 21 51  1  0  0  0  0
 21 52  1  0  0  0  0
 22 23  1  0  0  0  0
 22 24  1  0  0  0  0
 22 53  1  1  0  0  0
 23 54  1  0  0  0  0
 23 55  1  0  0  0  0
 24 25  1  0  0  0  0
 24 56  1  0  0  0  0
 24 57  1  0  0  0  0
 25 26  1  0  0  0  0
 25 27  1  0  0  0  0
 25 58  1  6  0  0  0
 26 59  1  0  0  0  0
 26 60  1  0  0  0  0
 27 61  1  0  0  0  0
M  END
$$$$
