DUD
 OpenBabel04041914203D

 35 36  0  0  1  0  0  0  0  0999 V2000
   -5.3692   37.0599   33.0063 N   0  3  0  0  0  0  0  0  0  0  0  0
   -4.2894   36.3795   32.4658 C   0  0  0  0  0  0  0  0  0  0  0  0
   -3.4305   37.1342   31.6914 N   0  3  0  0  0  0  0  0  0  0  0  0
   -3.5457   38.4615   31.4231 C   0  0  0  0  0  0  0  0  0  0  0  0
   -4.7145   39.1296   32.0130 C   0  0  0  0  0  0  0  0  0  0  0  0
   -5.5465   38.4113   32.7693 C   0  0  0  0  0  0  0  0  0  0  0  0
   -4.0265   35.1918   32.6479 O   0  0  0  0  0  0  0  0  0  0  0  0
   -2.6906   39.0798   30.7736 O   0  0  0  0  0  0  0  0  0  0  0  0
   -6.3380   36.3333   33.8494 C   0  0  1  0  0  0  0  0  0  0  0  0
   -6.4319   36.8792   35.2652 C   0  0  0  0  0  0  0  0  0  0  0  0
   -7.7842   37.5471   35.3397 C   0  0  1  0  0  0  0  0  0  0  0  0
   -8.5995   36.8894   34.2328 C   0  0  2  0  0  0  0  0  0  0  0  0
   -7.6465   36.3795   33.2659 O   0  0  0  0  0  0  0  0  0  0  0  0
   -8.3392   37.3232   36.6395 O   0  0  0  0  0  0  0  0  0  0  0  0
   -9.6307   37.8733   33.6043 C   0  0  0  0  0  0  0  0  0  0  0  0
   -8.9730   39.0295   33.0947 O   0  0  0  0  0  0  0  0  0  0  0  0
   -9.7419   40.4786   32.9816 P   0  0  1  0  0  0  0  0  0  0  0  0
  -10.6554   40.6174   34.1843 O   0  0  0  0  0  0  0  0  0  0  0  0
   -8.5907   41.4871   32.9096 O   0  0  0  0  0  0  0  0  0  0  0  0
  -10.4722   40.4525   31.5636 O   0  0  0  0  0  0  0  0  0  0  0  0
  -11.8087   39.8114   30.9551 P   0  0  0  0  0  0  0  0  0  0  0  0
  -11.4788   38.3306   30.7091 O   0  0  0  0  0  0  0  0  0  0  0  0
  -12.0422   40.5865   29.6400 O   0  0  0  0  0  0  0  0  0  0  0  0
  -12.9488   40.0182   31.9408 O   0  0  0  0  0  0  0  0  0  0  0  0
   -2.6281   36.6588   31.3190 H   0  0  0  0  0  0  0  0  0  0  0  0
   -4.8684   40.1785   31.8272 H   0  0  0  0  0  0  0  0  0  0  0  0
   -6.4109   38.8968   33.2171 H   0  0  0  0  0  0  0  0  0  0  0  0
   -6.0404   35.2766   33.9033 H   0  0  0  0  0  0  0  0  0  0  0  0
   -5.6239   37.5830   35.4898 H   0  0  0  0  0  0  0  0  0  0  0  0
   -6.3575   36.0686   36.0004 H   0  0  0  0  0  0  0  0  0  0  0  0
   -7.6853   38.6245   35.1830 H   0  0  0  0  0  0  0  0  0  0  0  0
   -9.1353   36.0184   34.6447 H   0  0  0  0  0  0  0  0  0  0  0  0
   -9.2058   37.7763   36.6293 H   0  0  0  0  0  0  0  0  0  0  0  0
  -10.3548   38.1424   34.3829 H   0  0  0  0  0  0  0  0  0  0  0  0
  -10.1469   37.3603   32.7925 H   0  0  0  0  0  0  0  0  0  0  0  0
  1  9  1  0  0  0  0
  1  6  1  0  0  0  0
  1  2  1  0  0  0  0
  2  7  2  0  0  0  0
  2  3  1  0  0  0  0
  3  4  1  0  0  0  0
  3 25  1  0  0  0  0
  4  8  2  0  0  0  0
  4  5  1  0  0  0  0
  5  6  2  0  0  0  0
  5 26  1  0  0  0  0
  6 27  1  0  0  0  0
  9 13  1  0  0  0  0
  9 10  1  0  0  0  0
  9 28  1  1  0  0  0
 10 11  1  0  0  0  0
 10 29  1  0  0  0  0
 10 30  1  0  0  0  0
 11 14  1  0  0  0  0
 11 12  1  0  0  0  0
 11 31  1  6  0  0  0
 12 15  1  0  0  0  0
 12 13  1  0  0  0  0
 12 32  1  1  0  0  0
 14 33  1  0  0  0  0
 15 16  1  0  0  0  0
 15 34  1  0  0  0  0
 15 35  1  0  0  0  0
 17 16  1  1  0  0  0
 17 20  1  0  0  0  0
 17 19  2  0  0  0  0
 17 18  1  0  0  0  0
 20 21  1  0  0  0  0
 21 24  2  0  0  0  0
 21 23  1  0  0  0  0
 21 22  1  0  0  0  0
M  CHG  2   1   1   3   1
M  END
$$$$
