DXC
 OpenBabel04041914223D

 67 70  0  0  1  0  0  0  0  0999 V2000
    4.8390   -3.5000   84.8813 C   0  0  1  0  0  0  0  0  0  0  0  0
    3.8082   -4.1927   83.9945 C   0  0  0  0  0  0  0  0  0  0  0  0
    2.4480   -4.3510   84.7025 C   0  0  2  0  0  0  0  0  0  0  0  0
    2.5906   -5.0886   86.0690 C   0  0  2  0  0  0  0  0  0  0  0  0
    3.6386   -4.3251   86.9165 C   0  0  0  0  0  0  0  0  0  0  0  0
    4.9965   -4.2392   86.2155 C   0  0  0  0  0  0  0  0  0  0  0  0
    1.4476   -5.0626   83.7770 C   0  0  0  0  0  0  0  0  0  0  0  0
    1.7713   -6.5497   83.5934 C   0  0  0  0  0  0  0  0  0  0  0  0
    1.9361   -7.2973   84.9228 C   0  0  2  0  0  0  0  0  0  0  0  0
    2.9900   -6.5886   85.8283 C   0  0  2  0  0  0  0  0  0  0  0  0
    2.3675   -8.7587   84.7188 C   0  0  1  0  0  0  0  0  0  0  0  0
    2.5151   -9.5516   86.0454 C   0  0  2  0  0  0  0  0  0  0  0  0
    3.5550   -8.8590   86.9379 C   0  0  2  0  0  0  0  0  0  0  0  0
    3.1669   -7.3846   87.1495 C   0  0  0  0  0  0  0  0  0  0  0  0
    1.5206   -9.6859   83.8414 C   0  0  0  0  0  0  0  0  0  0  0  0
    1.8929  -11.1093   84.3064 C   0  0  0  0  0  0  0  0  0  0  0  0
    2.9095  -10.9349   85.4630 C   0  0  2  0  0  0  0  0  0  0  0  0
    1.2576   -5.0453   86.8457 C   0  0  0  0  0  0  0  0  0  0  0  0
    2.9705  -12.1758   86.3876 C   0  0  1  0  0  0  0  0  0  0  0  0
    4.8367   -8.9511   86.3310 O   0  0  0  0  0  0  0  0  0  0  0  0
    6.0721   -3.4050   84.1718 O   0  0  0  0  0  0  0  0  0  0  0  0
    1.1830   -9.6274   86.8102 C   0  0  0  0  0  0  0  0  0  0  0  0
    3.3447  -13.4433   85.5764 C   0  0  0  0  0  0  0  0  0  0  0  0
    4.7282  -13.4009   84.9055 C   0  0  0  0  0  0  0  0  0  0  0  0
    4.6117  -14.1312   83.5306 C   0  0  0  0  0  0  0  0  0  0  0  0
    4.7912  -13.3969   82.5193 O   0  0  0  0  0  0  0  0  0  0  0  0
    4.3497  -15.3393   83.6218 O   0  0  0  0  0  0  0  0  0  0  0  0
    3.9712  -12.0118   87.5254 C   0  0  0  0  0  0  0  0  0  0  0  0
    4.5057   -2.4790   85.0960 H   0  0  0  0  0  0  0  0  0  0  0  0
    4.1997   -5.1759   83.7019 H   0  0  0  0  0  0  0  0  0  0  0  0
    3.6834   -3.6080   83.0720 H   0  0  0  0  0  0  0  0  0  0  0  0
    2.0716   -3.3355   84.8982 H   0  0  0  0  0  0  0  0  0  0  0  0
    3.7523   -4.8123   87.8910 H   0  0  0  0  0  0  0  0  0  0  0  0
    3.2755   -3.3013   87.1036 H   0  0  0  0  0  0  0  0  0  0  0  0
    5.7146   -3.7175   86.8626 H   0  0  0  0  0  0  0  0  0  0  0  0
    5.3883   -5.2512   86.0506 H   0  0  0  0  0  0  0  0  0  0  0  0
    1.4404   -4.5704   82.7939 H   0  0  0  0  0  0  0  0  0  0  0  0
    0.4381   -4.9669   84.1985 H   0  0  0  0  0  0  0  0  0  0  0  0
    0.9674   -7.0200   83.0143 H   0  0  0  0  0  0  0  0  0  0  0  0
    2.7005   -6.6385   83.0177 H   0  0  0  0  0  0  0  0  0  0  0  0
    0.9688   -7.2857   85.4339 H   0  0  0  0  0  0  0  0  0  0  0  0
    3.9545   -6.6109   85.3007 H   0  0  0  0  0  0  0  0  0  0  0  0
    3.3537   -8.7065   84.2365 H   0  0  0  0  0  0  0  0  0  0  0  0
    3.6012   -9.3457   87.9157 H   0  0  0  0  0  0  0  0  0  0  0  0
    2.2226   -7.3560   87.7025 H   0  0  0  0  0  0  0  0  0  0  0  0
    3.9256   -6.9002   87.7687 H   0  0  0  0  0  0  0  0  0  0  0  0
    1.7615   -9.5589   82.7808 H   0  0  0  0  0  0  0  0  0  0  0  0
    0.4476   -9.5070   83.9821 H   0  0  0  0  0  0  0  0  0  0  0  0
    0.9979  -11.6423   84.6603 H   0  0  0  0  0  0  0  0  0  0  0  0
    2.3325  -11.6857   83.4848 H   0  0  0  0  0  0  0  0  0  0  0  0
    3.9031  -10.8214   85.0155 H   0  0  0  0  0  0  0  0  0  0  0  0
    0.4666   -5.5705   86.3042 H   0  0  0  0  0  0  0  0  0  0  0  0
    0.9304   -4.0143   87.0061 H   0  0  0  0  0  0  0  0  0  0  0  0
    1.3677   -5.5217   87.8266 H   0  0  0  0  0  0  0  0  0  0  0  0
    1.9769  -12.3371   86.8294 H   0  0  0  0  0  0  0  0  0  0  0  0
    5.4994   -8.5424   86.9042 H   0  0  0  0  0  0  0  0  0  0  0  0
    5.8785   -2.9382   83.3338 H   0  0  0  0  0  0  0  0  0  0  0  0
    0.4058  -10.0927   86.2012 H   0  0  0  0  0  0  0  0  0  0  0  0
    0.8263   -8.6322   87.0892 H   0  0  0  0  0  0  0  0  0  0  0  0
    1.3053  -10.2129   87.7263 H   0  0  0  0  0  0  0  0  0  0  0  0
    2.5907  -13.5885   84.7972 H   0  0  0  0  0  0  0  0  0  0  0  0
    3.3081  -14.3125   86.2487 H   0  0  0  0  0  0  0  0  0  0  0  0
    5.4462  -13.9707   85.5322 H   0  0  0  0  0  0  0  0  0  0  0  0
    5.0921  -12.3871   84.8167 H   0  0  0  0  0  0  0  0  0  0  0  0
    3.7230  -11.1500   88.1354 H   0  0  0  0  0  0  0  0  0  0  0  0
    4.9856  -11.8843   87.1339 H   0  0  0  0  0  0  0  0  0  0  0  0
    3.9574  -12.8853   88.1873 H   0  0  0  0  0  0  0  0  0  0  0  0
  1 21  1  0  0  0  0
  1  6  1  0  0  0  0
  1  2  1  0  0  0  0
  1 29  1  1  0  0  0
  2  3  1  0  0  0  0
  2 30  1  0  0  0  0
  2 31  1  0  0  0  0
  3  7  1  0  0  0  0
  3  4  1  0  0  0  0
  3 32  1  1  0  0  0
  4 18  1  1  0  0  0
  4 10  1  0  0  0  0
  4  5  1  0  0  0  0
  5  6  1  0  0  0  0
  5 33  1  0  0  0  0
  5 34  1  0  0  0  0
  6 35  1  0  0  0  0
  6 36  1  0  0  0  0
  7  8  1  0  0  0  0
  7 37  1  0  0  0  0
  7 38  1  0  0  0  0
  8  9  1  0  0  0  0
  8 39  1  0  0  0  0
  8 40  1  0  0  0  0
  9 10  1  0  0  0  0
  9 11  1  0  0  0  0
  9 41  1  1  0  0  0
 10 14  1  0  0  0  0
 10 42  1  6  0  0  0
 11 15  1  0  0  0  0
 11 12  1  0  0  0  0
 11 43  1  6  0  0  0
 12 22  1  1  0  0  0
 12 17  1  0  0  0  0
 12 13  1  0  0  0  0
 13 20  1  0  0  0  0
 13 14  1  0  0  0  0
 13 44  1  1  0  0  0
 14 45  1  0  0  0  0
 14 46  1  0  0  0  0
 15 16  1  0  0  0  0
 15 47  1  0  0  0  0
 15 48  1  0  0  0  0
 16 17  1  0  0  0  0
 16 49  1  0  0  0  0
 16 50  1  0  0  0  0
 17 19  1  0  0  0  0
 17 51  1  6  0  0  0
 18 52  1  0  0  0  0
 18 53  1  0  0  0  0
 18 54  1  0  0  0  0
 19 28  1  0  0  0  0
 19 23  1  0  0  0  0
 19 55  1  1  0  0  0
 20 56  1  0  0  0  0
 21 57  1  0  0  0  0
 22 58  1  0  0  0  0
 22 59  1  0  0  0  0
 22 60  1  0  0  0  0
 23 24  1  0  0  0  0
 23 61  1  0  0  0  0
 23 62  1  0  0  0  0
 24 25  1  0  0  0  0
 24 63  1  0  0  0  0
 24 64  1  0  0  0  0
 25 27  2  0  0  0  0
 25 26  1  0  0  0  0
 28 65  1  0  0  0  0
 28 66  1  0  0  0  0
 28 67  1  0  0  0  0
M  END
$$$$
