DXP
 OpenBabel04041915423D

 22 21  0  0  1  0  0  0  0  0999 V2000
   28.4334    0.8892   36.3830 C   0  0  0  0  0  0  0  0  0  0  0  0
   29.3117    0.8027   35.1740 C   0  0  0  0  0  0  0  0  0  0  0  0
   30.1207    2.0111   34.7375 C   0  0  2  0  0  0  0  0  0  0  0  0
   30.7973    2.9455   35.7521 C   0  0  1  0  0  0  0  0  0  0  0  0
   32.2484    2.4841   35.9173 C   0  0  0  0  0  0  0  0  0  0  0  0
   29.2594   -0.2109   34.4611 O   0  0  0  0  0  0  0  0  0  0  0  0
   29.2805    2.8087   33.8828 O   0  0  0  0  0  0  0  0  0  0  0  0
   30.7622    4.2789   35.1869 O   0  0  0  0  0  0  0  0  0  0  0  0
   33.0874    3.5565   36.2639 O   0  0  0  0  0  0  0  0  0  0  0  0
   34.6661    3.1666   36.3288 P   0  0  0  0  0  0  0  0  0  0  0  0
   35.3677    4.4864   36.5835 O   0  0  0  0  0  0  0  0  0  0  0  0
   34.9691    2.5387   34.9490 O   0  0  0  0  0  0  0  0  0  0  0  0
   34.7255    2.1668   37.4724 O   0  0  0  0  0  0  0  0  0  0  0  0
   27.8555   -0.0395   36.4543 H   0  0  0  0  0  0  0  0  0  0  0  0
   27.7346    1.7214   36.2743 H   0  0  0  0  0  0  0  0  0  0  0  0
   29.0368    0.9913   37.2861 H   0  0  0  0  0  0  0  0  0  0  0  0
   30.8892    1.5835   34.0868 H   0  0  0  0  0  0  0  0  0  0  0  0
   30.2929    2.9930   36.7324 H   0  0  0  0  0  0  0  0  0  0  0  0
   32.6031    2.0642   34.9711 H   0  0  0  0  0  0  0  0  0  0  0  0
   32.2961    1.6942   36.6744 H   0  0  0  0  0  0  0  0  0  0  0  0
   29.9441    3.4259   33.5003 H   0  0  0  0  0  0  0  0  0  0  0  0
   29.8812    4.6467   35.3435 H   0  0  0  0  0  0  0  0  0  0  0  0
  1  2  1  0  0  0  0
  1 14  1  0  0  0  0
  1 15  1  0  0  0  0
  1 16  1  0  0  0  0
  2  3  1  0  0  0  0
  2  6  2  0  0  0  0
  3  4  1  0  0  0  0
  3  7  1  0  0  0  0
  3 17  1  6  0  0  0
  4  5  1  0  0  0  0
  4  8  1  0  0  0  0
  4 18  1  1  0  0  0
  5  9  1  0  0  0  0
  5 19  1  0  0  0  0
  5 20  1  0  0  0  0
  7 21  1  0  0  0  0
  8 22  1  0  0  0  0
  9 10  1  0  0  0  0
 10 11  2  0  0  0  0
 10 12  1  0  0  0  0
 10 13  1  0  0  0  0
M  END
$$$$
