E10
 OpenBabel04041914533D

 78 81  0  0  1  0  0  0  0  0999 V2000
    4.5959   59.5367   71.3768 C   0  0  0  0  0  0  0  0  0  0  0  0
    3.7812   58.4662   71.6263 N   0  3  0  0  0  0  0  0  0  0  0  0
    2.8033   58.4177   72.5895 C   0  0  0  0  0  0  0  0  0  0  0  0
    2.5670   59.5008   73.3593 C   0  0  0  0  0  0  0  0  0  0  0  0
    3.4108   60.6865   73.1803 C   0  0  0  0  0  0  0  0  0  0  0  0
    4.3840   60.7161   72.2537 C   0  0  0  0  0  0  0  0  0  0  0  0
    5.4256   59.5363   70.4783 O   0  0  0  0  0  0  0  0  0  0  0  0
    2.0122   57.1367   72.6652 C   0  0  0  0  0  0  0  0  0  0  0  0
    1.4490   59.5139   74.3837 C   0  0  2  0  0  0  0  0  0  0  0  0
    0.7243   58.1616   74.5666 C   0  0  0  0  0  0  0  0  0  0  0  0
    0.6305   57.3482   73.2754 C   0  0  0  0  0  0  0  0  0  0  0  0
    0.4226   60.5864   74.0820 N   0  3  0  0  0  0  0  0  0  0  0  0
   -0.3482   60.4875   72.7965 C   0  0  0  0  0  0  0  0  0  0  0  0
    0.9991   68.3800   60.9339 C   0  0  0  0  0  0  0  0  0  0  0  0
    2.3764   68.3780   60.9645 N   0  3  0  0  0  0  0  0  0  0  0  0
    3.1591   68.2912   62.1027 C   0  0  0  0  0  0  0  0  0  0  0  0
    2.5909   68.1389   63.3239 C   0  0  0  0  0  0  0  0  0  0  0  0
    1.1142   68.1179   63.3881 C   0  0  0  0  0  0  0  0  0  0  0  0
    0.3543   68.2120   62.2705 C   0  0  0  0  0  0  0  0  0  0  0  0
    0.3541   68.4976   59.9182 O   0  0  0  0  0  0  0  0  0  0  0  0
    4.6515   68.3730   61.8721 C   0  0  0  0  0  0  0  0  0  0  0  0
    3.4744   68.0752   64.6057 C   0  0  2  0  0  0  0  0  0  0  0  0
    4.9740   67.9177   64.2883 C   0  0  0  0  0  0  0  0  0  0  0  0
    5.4223   68.7702   63.1253 C   0  0  0  0  0  0  0  0  0  0  0  0
    3.1442   66.9086   65.5318 N   0  3  0  0  0  0  0  0  0  0  0  0
    4.1296   66.5492   66.6394 C   0  0  0  0  0  0  0  0  0  0  0  0
   -0.8482   61.8660   72.3812 C   0  0  0  0  0  0  0  0  0  0  0  0
    0.2688   62.8508   72.0239 C   0  0  0  0  0  0  0  0  0  0  0  0
    1.0497   62.4206   70.7871 C   0  0  0  0  0  0  0  0  0  0  0  0
    1.8158   63.5866   70.1399 C   0  0  0  0  0  0  0  0  0  0  0  0
    3.3161   63.2944   70.1172 C   0  0  0  0  0  0  0  0  0  0  0  0
    4.1171   63.8637   68.9451 C   0  0  0  0  0  0  0  0  0  0  0  0
    4.2649   65.3881   68.9154 C   0  0  0  0  0  0  0  0  0  0  0  0
    3.3594   66.0131   67.8421 C   0  0  0  0  0  0  0  0  0  0  0  0
    3.9458   57.6655   71.0237 H   0  0  0  0  0  0  0  0  0  0  0  0
    3.2630   61.5632   73.8054 H   0  0  0  0  0  0  0  0  0  0  0  0
    5.0294   61.5742   72.0964 H   0  0  0  0  0  0  0  0  0  0  0  0
    2.5752   56.4178   73.2702 H   0  0  0  0  0  0  0  0  0  0  0  0
    1.8917   56.6859   71.6707 H   0  0  0  0  0  0  0  0  0  0  0  0
    1.8761   59.7968   75.3588 H   0  0  0  0  0  0  0  0  0  0  0  0
   -0.2802   58.3133   74.9780 H   0  0  0  0  0  0  0  0  0  0  0  0
    1.2684   57.5599   75.3082 H   0  0  0  0  0  0  0  0  0  0  0  0
   -0.0092   57.8578   72.5491 H   0  0  0  0  0  0  0  0  0  0  0  0
    0.1557   56.3783   73.4680 H   0  0  0  0  0  0  0  0  0  0  0  0
   -0.2429   60.6493   74.8641 H   0  0  0  0  0  0  0  0  0  0  0  0
   -1.1939   59.8152   72.9734 H   0  0  0  0  0  0  0  0  0  0  0  0
    0.2968   60.0673   72.0217 H   0  0  0  0  0  0  0  0  0  0  0  0
    2.8279   68.4852   60.0617 H   0  0  0  0  0  0  0  0  0  0  0  0
    0.6077   68.0233   64.3375 H   0  0  0  0  0  0  0  0  0  0  0  0
   -0.7358   68.1865   62.2756 H   0  0  0  0  0  0  0  0  0  0  0  0
    4.8845   69.0949   61.0840 H   0  0  0  0  0  0  0  0  0  0  0  0
    5.0037   67.3923   61.5283 H   0  0  0  0  0  0  0  0  0  0  0  0
    3.3176   68.9876   65.2041 H   0  0  0  0  0  0  0  0  0  0  0  0
    5.1873   66.8658   64.0546 H   0  0  0  0  0  0  0  0  0  0  0  0
    5.5816   68.1811   65.1614 H   0  0  0  0  0  0  0  0  0  0  0  0
    5.2621   69.8281   63.3618 H   0  0  0  0  0  0  0  0  0  0  0  0
    6.5008   68.6308   62.9724 H   0  0  0  0  0  0  0  0  0  0  0  0
    3.0393   66.0863   64.9231 H   0  0  0  0  0  0  0  0  0  0  0  0
    4.8149   65.7924   66.2358 H   0  0  0  0  0  0  0  0  0  0  0  0
    4.6892   67.4447   66.9279 H   0  0  0  0  0  0  0  0  0  0  0  0
   -1.4556   62.2941   73.1859 H   0  0  0  0  0  0  0  0  0  0  0  0
   -1.5086   61.7521   71.5107 H   0  0  0  0  0  0  0  0  0  0  0  0
    0.9684   62.9612   72.8582 H   0  0  0  0  0  0  0  0  0  0  0  0
   -0.1785   63.8350   71.8578 H   0  0  0  0  0  0  0  0  0  0  0  0
    0.3663   61.9872   70.0478 H   0  0  0  0  0  0  0  0  0  0  0  0
    1.7351   61.6180   71.0760 H   0  0  0  0  0  0  0  0  0  0  0  0
    1.6358   64.5178   70.6905 H   0  0  0  0  0  0  0  0  0  0  0  0
    1.4302   63.7315   69.1249 H   0  0  0  0  0  0  0  0  0  0  0  0
    3.4566   62.2097   70.0697 H   0  0  0  0  0  0  0  0  0  0  0  0
    3.7482   63.6366   71.0643 H   0  0  0  0  0  0  0  0  0  0  0  0
    3.6841   63.5002   68.0072 H   0  0  0  0  0  0  0  0  0  0  0  0
    5.1206   63.4224   69.0047 H   0  0  0  0  0  0  0  0  0  0  0  0
    5.3166   65.6410   68.7181 H   0  0  0  0  0  0  0  0  0  0  0  0
    4.0279   65.8100   69.8996 H   0  0  0  0  0  0  0  0  0  0  0  0
    2.8050   66.8443   68.2907 H   0  0  0  0  0  0  0  0  0  0  0  0
    2.6235   65.2813   67.4972 H   0  0  0  0  0  0  0  0  0  0  0  0
    0.9284   61.4748   74.1033 H   0  0  0  0  0  0  0  0  0  0  0  0
    2.2216   67.0860   65.9404 H   0  0  0  0  0  0  0  0  0  0  0  0
  1  7  2  0  0  0  0
  1  6  1  0  0  0  0
  1  2  1  0  0  0  0
  2  3  1  0  0  0  0
  2 35  1  0  0  0  0
  3  8  1  0  0  0  0
  3  4  2  0  0  0  0
  4  9  1  0  0  0  0
  4  5  1  0  0  0  0
  5  6  2  0  0  0  0
  5 36  1  0  0  0  0
  6 37  1  0  0  0  0
  8 11  1  0  0  0  0
  8 38  1  0  0  0  0
  8 39  1  0  0  0  0
  9 12  1  0  0  0  0
  9 10  1  0  0  0  0
  9 40  1  1  0  0  0
 10 11  1  0  0  0  0
 10 41  1  0  0  0  0
 10 42  1  0  0  0  0
 11 43  1  0  0  0  0
 11 44  1  0  0  0  0
 12 13  1  0  0  0  0
 12 45  1  0  0  0  0
 12 77  1  0  0  0  0
 13 27  1  0  0  0  0
 13 46  1  0  0  0  0
 13 47  1  0  0  0  0
 14 15  1  0  0  0  0
 14 20  2  0  0  0  0
 14 19  1  0  0  0  0
 15 16  1  0  0  0  0
 15 48  1  0  0  0  0
 16 17  2  0  0  0  0
 16 21  1  0  0  0  0
 17 22  1  0  0  0  0
 17 18  1  0  0  0  0
 18 19  2  0  0  0  0
 18 49  1  0  0  0  0
 19 50  1  0  0  0  0
 21 24  1  0  0  0  0
 21 51  1  0  0  0  0
 21 52  1  0  0  0  0
 22 25  1  0  0  0  0
 22 23  1  0  0  0  0
 22 53  1  1  0  0  0
 23 24  1  0  0  0  0
 23 54  1  0  0  0  0
 23 55  1  0  0  0  0
 24 56  1  0  0  0  0
 24 57  1  0  0  0  0
 25 26  1  0  0  0  0
 25 58  1  0  0  0  0
 25 78  1  0  0  0  0
 26 34  1  0  0  0  0
 26 59  1  0  0  0  0
 26 60  1  0  0  0  0
 27 28  1  0  0  0  0
 27 61  1  0  0  0  0
 27 62  1  0  0  0  0
 28 29  1  0  0  0  0
 28 63  1  0  0  0  0
 28 64  1  0  0  0  0
 29 30  1  0  0  0  0
 29 65  1  0  0  0  0
 29 66  1  0  0  0  0
 30 31  1  0  0  0  0
 30 67  1  0  0  0  0
 30 68  1  0  0  0  0
 31 32  1  0  0  0  0
 31 69  1  0  0  0  0
 31 70  1  0  0  0  0
 32 33  1  0  0  0  0
 32 71  1  0  0  0  0
 32 72  1  0  0  0  0
 33 34  1  0  0  0  0
 33 73  1  0  0  0  0
 33 74  1  0  0  0  0
 34 75  1  0  0  0  0
 34 76  1  0  0  0  0
M  CHG  4   2   1  12   1  15   1  25   1
M  END
$$$$
