E12
 OpenBabel04041914543D

 84 87  0  0  1  0  0  0  0  0999 V2000
    4.5275   59.6003   71.6540 C   0  0  0  0  0  0  0  0  0  0  0  0
    3.6862   58.4967   71.9000 N   0  3  0  0  0  0  0  0  0  0  0  0
    5.3316   59.6604   70.7459 O   0  0  0  0  0  0  0  0  0  0  0  0
    2.5330   59.4037   73.7350 C   0  0  0  0  0  0  0  0  0  0  0  0
    3.3555   60.6251   73.5896 C   0  0  0  0  0  0  0  0  0  0  0  0
    0.6442   57.2049   73.6221 C   0  0  0  0  0  0  0  0  0  0  0  0
    0.4194   60.3582   74.7485 N   0  3  0  0  0  0  0  0  0  0  0  0
   -0.4018   60.5383   73.4986 C   0  0  0  0  0  0  0  0  0  0  0  0
    4.2965   60.7303   72.6367 C   0  0  0  0  0  0  0  0  0  0  0  0
    2.0043   57.0595   72.9335 C   0  0  0  0  0  0  0  0  0  0  0  0
    1.4947   59.2904   74.8456 C   0  0  1  0  0  0  0  0  0  0  0  0
    0.7864   57.9170   74.9644 C   0  0  0  0  0  0  0  0  0  0  0  0
   -0.7059   62.0370   73.3986 C   0  0  0  0  0  0  0  0  0  0  0  0
    1.0866   68.6428   60.9759 C   0  0  0  0  0  0  0  0  0  0  0  0
    2.7465   58.3899   72.8941 C   0  0  0  0  0  0  0  0  0  0  0  0
    2.4806   68.5814   61.0249 N   0  3  0  0  0  0  0  0  0  0  0  0
    3.2496   68.5407   62.1688 C   0  0  0  0  0  0  0  0  0  0  0  0
    2.6622   68.5220   63.3692 C   0  0  0  0  0  0  0  0  0  0  0  0
    1.1813   68.5301   63.4418 C   0  0  0  0  0  0  0  0  0  0  0  0
    0.4299   68.5640   62.3284 C   0  0  0  0  0  0  0  0  0  0  0  0
    0.4582   68.7434   59.9459 O   0  0  0  0  0  0  0  0  0  0  0  0
    4.7621   68.5598   61.9388 C   0  0  0  0  0  0  0  0  0  0  0  0
    3.5022   68.5310   64.6348 C   0  0  2  0  0  0  0  0  0  0  0  0
    5.0012   68.2597   64.4090 C   0  0  0  0  0  0  0  0  0  0  0  0
    5.5112   69.0162   63.1942 C   0  0  0  0  0  0  0  0  0  0  0  0
    3.0203   67.6039   65.7034 N   0  3  0  0  0  0  0  0  0  0  0  0
    3.2040   66.1241   65.5770 C   0  0  0  0  0  0  0  0  0  0  0  0
   -0.4686   62.5543   71.9885 C   0  0  0  0  0  0  0  0  0  0  0  0
    1.0217   62.5940   71.6896 C   0  0  0  0  0  0  0  0  0  0  0  0
    1.2969   62.5021   70.2031 C   0  0  0  0  0  0  0  0  0  0  0  0
    2.7892   62.5779   69.9183 C   0  0  0  0  0  0  0  0  0  0  0  0
    3.3395   63.9767   70.1397 C   0  0  0  0  0  0  0  0  0  0  0  0
    4.6019   64.2378   69.3321 C   0  0  0  0  0  0  0  0  0  0  0  0
    4.8174   65.7293   69.1349 C   0  0  0  0  0  0  0  0  0  0  0  0
    3.9564   66.3130   68.0256 C   0  0  0  0  0  0  0  0  0  0  0  0
    4.1838   65.6648   66.6514 C   0  0  0  0  0  0  0  0  0  0  0  0
    3.8391   57.7308   71.2593 H   0  0  0  0  0  0  0  0  0  0  0  0
    3.2006   61.4586   74.2792 H   0  0  0  0  0  0  0  0  0  0  0  0
   -0.0263   57.7749   72.9685 H   0  0  0  0  0  0  0  0  0  0  0  0
    0.1915   56.2127   73.7615 H   0  0  0  0  0  0  0  0  0  0  0  0
   -0.2291   60.2397   75.5371 H   0  0  0  0  0  0  0  0  0  0  0  0
   -1.3300   59.9609   73.5873 H   0  0  0  0  0  0  0  0  0  0  0  0
    0.1534   60.1766   72.6302 H   0  0  0  0  0  0  0  0  0  0  0  0
    4.8962   61.6372   72.5157 H   0  0  0  0  0  0  0  0  0  0  0  0
    2.6068   56.3228   73.4826 H   0  0  0  0  0  0  0  0  0  0  0  0
    1.8560   56.6652   71.9214 H   0  0  0  0  0  0  0  0  0  0  0  0
    1.9962   59.4733   75.8117 H   0  0  0  0  0  0  0  0  0  0  0  0
   -0.2074   58.0342   75.4263 H   0  0  0  0  0  0  0  0  0  0  0  0
    1.3699   57.2763   75.6448 H   0  0  0  0  0  0  0  0  0  0  0  0
   -0.0670   62.6097   74.0818 H   0  0  0  0  0  0  0  0  0  0  0  0
   -1.7461   62.2284   73.6799 H   0  0  0  0  0  0  0  0  0  0  0  0
    2.9282   68.6088   60.1196 H   0  0  0  0  0  0  0  0  0  0  0  0
    0.6851   68.5093   64.4092 H   0  0  0  0  0  0  0  0  0  0  0  0
   -0.6650   68.5620   62.3779 H   0  0  0  0  0  0  0  0  0  0  0  0
    5.0348   69.2193   61.1072 H   0  0  0  0  0  0  0  0  0  0  0  0
    5.1005   67.5485   61.6737 H   0  0  0  0  0  0  0  0  0  0  0  0
    3.4237   69.5397   65.0676 H   0  0  0  0  0  0  0  0  0  0  0  0
    5.1754   67.1893   64.2476 H   0  0  0  0  0  0  0  0  0  0  0  0
    5.5755   68.5519   65.3004 H   0  0  0  0  0  0  0  0  0  0  0  0
    5.3523   70.0910   63.3437 H   0  0  0  0  0  0  0  0  0  0  0  0
    6.5912   68.8509   63.0788 H   0  0  0  0  0  0  0  0  0  0  0  0
    2.0381   67.7895   65.9076 H   0  0  0  0  0  0  0  0  0  0  0  0
    2.2240   65.6507   65.7110 H   0  0  0  0  0  0  0  0  0  0  0  0
    3.5658   65.8978   64.5728 H   0  0  0  0  0  0  0  0  0  0  0  0
   -0.8779   63.5670   71.8952 H   0  0  0  0  0  0  0  0  0  0  0  0
   -0.9819   61.9035   71.2744 H   0  0  0  0  0  0  0  0  0  0  0  0
    1.5181   61.7582   72.1794 H   0  0  0  0  0  0  0  0  0  0  0  0
    1.4489   63.5175   72.0898 H   0  0  0  0  0  0  0  0  0  0  0  0
    0.7765   63.3164   69.6872 H   0  0  0  0  0  0  0  0  0  0  0  0
    0.9096   61.5486   69.8224 H   0  0  0  0  0  0  0  0  0  0  0  0
    2.9572   62.2700   68.8846 H   0  0  0  0  0  0  0  0  0  0  0  0
    3.3114   61.8838   70.5728 H   0  0  0  0  0  0  0  0  0  0  0  0
    3.5739   64.1111   71.2015 H   0  0  0  0  0  0  0  0  0  0  0  0
    2.5756   64.7073   69.8599 H   0  0  0  0  0  0  0  0  0  0  0  0
    4.5326   63.7351   68.3684 H   0  0  0  0  0  0  0  0  0  0  0  0
    5.4663   63.8175   69.8521 H   0  0  0  0  0  0  0  0  0  0  0  0
    5.8684   65.9148   68.8950 H   0  0  0  0  0  0  0  0  0  0  0  0
    4.5781   66.2538   70.0689 H   0  0  0  0  0  0  0  0  0  0  0  0
    4.2139   67.3785   67.9890 H   0  0  0  0  0  0  0  0  0  0  0  0
    2.8962   66.2334   68.2877 H   0  0  0  0  0  0  0  0  0  0  0  0
    4.0834   64.5836   66.7291 H   0  0  0  0  0  0  0  0  0  0  0  0
    5.2006   65.8879   66.3158 H   0  0  0  0  0  0  0  0  0  0  0  0
    0.9125   61.2383   74.9268 H   0  0  0  0  0  0  0  0  0  0  0  0
    3.5113   67.9079   66.5414 H   0  0  0  0  0  0  0  0  0  0  0  0
  1  9  1  0  0  0  0
  1  3  2  0  0  0  0
  1  2  1  0  0  0  0
  2 15  1  0  0  0  0
  2 37  1  0  0  0  0
  4 15  2  0  0  0  0
  4 11  1  0  0  0  0
  4  5  1  0  0  0  0
  5  9  2  0  0  0  0
  5 38  1  0  0  0  0
  6 12  1  0  0  0  0
  6 10  1  0  0  0  0
  6 39  1  0  0  0  0
  6 40  1  0  0  0  0
  7 11  1  0  0  0  0
  7  8  1  0  0  0  0
  7 41  1  0  0  0  0
  7 83  1  0  0  0  0
  8 13  1  0  0  0  0
  8 42  1  0  0  0  0
  8 43  1  0  0  0  0
  9 44  1  0  0  0  0
 10 15  1  0  0  0  0
 10 45  1  0  0  0  0
 10 46  1  0  0  0  0
 11 12  1  0  0  0  0
 11 47  1  1  0  0  0
 12 48  1  0  0  0  0
 12 49  1  0  0  0  0
 13 28  1  0  0  0  0
 13 50  1  0  0  0  0
 13 51  1  0  0  0  0
 14 16  1  0  0  0  0
 14 20  1  0  0  0  0
 14 21  2  0  0  0  0
 16 17  1  0  0  0  0
 16 52  1  0  0  0  0
 17 18  2  0  0  0  0
 17 22  1  0  0  0  0
 18 23  1  0  0  0  0
 18 19  1  0  0  0  0
 19 20  2  0  0  0  0
 19 53  1  0  0  0  0
 20 54  1  0  0  0  0
 22 25  1  0  0  0  0
 22 55  1  0  0  0  0
 22 56  1  0  0  0  0
 23 26  1  0  0  0  0
 23 24  1  0  0  0  0
 23 57  1  1  0  0  0
 24 25  1  0  0  0  0
 24 58  1  0  0  0  0
 24 59  1  0  0  0  0
 25 60  1  0  0  0  0
 25 61  1  0  0  0  0
 26 27  1  0  0  0  0
 26 62  1  0  0  0  0
 26 84  1  0  0  0  0
 27 36  1  0  0  0  0
 27 63  1  0  0  0  0
 27 64  1  0  0  0  0
 28 29  1  0  0  0  0
 28 65  1  0  0  0  0
 28 66  1  0  0  0  0
 29 30  1  0  0  0  0
 29 67  1  0  0  0  0
 29 68  1  0  0  0  0
 30 31  1  0  0  0  0
 30 69  1  0  0  0  0
 30 70  1  0  0  0  0
 31 32  1  0  0  0  0
 31 71  1  0  0  0  0
 31 72  1  0  0  0  0
 32 33  1  0  0  0  0
 32 73  1  0  0  0  0
 32 74  1  0  0  0  0
 33 34  1  0  0  0  0
 33 75  1  0  0  0  0
 33 76  1  0  0  0  0
 34 35  1  0  0  0  0
 34 77  1  0  0  0  0
 34 78  1  0  0  0  0
 35 36  1  0  0  0  0
 35 79  1  0  0  0  0
 35 80  1  0  0  0  0
 36 81  1  0  0  0  0
 36 82  1  0  0  0  0
M  CHG  4   2   1   7   1  16   1  26   1
M  END
$$$$
