E4P
 OpenBabel04041917033D

 21 20  0  0  1  0  0  0  0  0999 V2000
    8.0164    2.3766   -0.0799 C   0  0  0  0  0  0  0  0  0  0  0  0
    9.1283    2.5426    0.7954 O   0  0  0  0  0  0  0  0  0  0  0  0
    7.3996    3.7151   -0.5031 C   0  0  2  0  0  0  0  0  0  0  0  0
    8.4237    4.5127   -1.1300 O   0  0  0  0  0  0  0  0  0  0  0  0
    6.7577    4.4211    0.7021 C   0  0  2  0  0  0  0  0  0  0  0  0
    5.7371    3.5672    1.2749 O   0  0  0  0  0  0  0  0  0  0  0  0
    6.1972    5.8017    0.3481 C   0  0  0  0  0  0  0  0  0  0  0  0
    5.2659    5.6714   -0.7070 O   0  0  0  0  0  0  0  0  0  0  0  0
    4.8339    7.0813   -1.4261 P   0  0  0  0  0  0  0  0  0  0  0  0
    4.3595    7.9335   -0.2582 O   0  0  0  0  0  0  0  0  0  0  0  0
    6.1445    7.5385   -2.0590 O   0  0  0  0  0  0  0  0  0  0  0  0
    3.7567    6.6632   -2.4076 O   0  0  0  0  0  0  0  0  0  0  0  0
    7.2823    1.7498    0.4471 H   0  0  0  0  0  0  0  0  0  0  0  0
    8.3691    1.8301   -0.9566 H   0  0  0  0  0  0  0  0  0  0  0  0
    9.5310    1.6747    0.8832 H   0  0  0  0  0  0  0  0  0  0  0  0
    6.6430    3.4987   -1.2653 H   0  0  0  0  0  0  0  0  0  0  0  0
    7.9496    5.2987   -1.5002 H   0  0  0  0  0  0  0  0  0  0  0  0
    7.5023    4.5608    1.4956 H   0  0  0  0  0  0  0  0  0  0  0  0
    5.1132    4.1695    1.7172 H   0  0  0  0  0  0  0  0  0  0  0  0
    7.0121    6.4798    0.0688 H   0  0  0  0  0  0  0  0  0  0  0  0
    5.6797    6.2281    1.2129 H   0  0  0  0  0  0  0  0  0  0  0  0
  1  2  1  0  0  0  0
  1  3  1  0  0  0  0
  1 13  1  0  0  0  0
  1 14  1  0  0  0  0
  2 15  1  0  0  0  0
  3  4  1  0  0  0  0
  3  5  1  0  0  0  0
  3 16  1  6  0  0  0
  4 17  1  0  0  0  0
  5  6  1  0  0  0  0
  5  7  1  0  0  0  0
  5 18  1  1  0  0  0
  6 19  1  0  0  0  0
  7  8  1  0  0  0  0
  7 20  1  0  0  0  0
  7 21  1  0  0  0  0
  8  9  1  0  0  0  0
  9 10  2  0  0  0  0
  9 11  1  0  0  0  0
  9 12  1  0  0  0  0
M  END
$$$$
