EG1
 OpenBabel04041914123D

 51 51  0  0  0  0  0  0  0  0999 V2000
   -6.1280    0.9979   17.1834 S   0  0  0  0  0  0  0  0  0  0  0  0
   -5.4677    1.0301   18.4728 O   0  0  0  0  0  0  0  0  0  0  0  0
   -7.5306    0.9429   17.0084 O   0  0  0  0  0  0  0  0  0  0  0  0
   -5.5023   -0.2757   16.3211 N   0  0  0  0  0  0  0  0  0  0  0  0
   -4.6367    4.4284   14.6383 C   0  0  0  0  0  0  0  0  0  0  0  0
   -3.7755    3.3461   14.9174 C   0  0  0  0  0  0  0  0  0  0  0  0
   -4.2004    2.2928   15.7051 C   0  0  0  0  0  0  0  0  0  0  0  0
   -5.4962    2.3358   16.2250 C   0  0  0  0  0  0  0  0  0  0  0  0
   -6.3813    3.3706   15.9153 C   0  0  0  0  0  0  0  0  0  0  0  0
   -5.9496    4.4203   15.1291 C   0  0  0  0  0  0  0  0  0  0  0  0
   -4.2272    5.5822   13.8264 C   0  0  0  0  0  0  0  0  0  0  0  0
   -5.0074    6.4885   13.5732 O   0  0  0  0  0  0  0  0  0  0  0  0
   -2.9415    5.5645   13.3737 N   0  0  0  0  0  0  0  0  0  0  0  0
   -2.3963    6.5799   12.5220 C   0  0  0  0  0  0  0  0  0  0  0  0
   -2.2116    7.9145   13.2225 C   0  0  0  0  0  0  0  0  0  0  0  0
   -1.1999    7.7712   14.2302 O   0  0  0  0  0  0  0  0  0  0  0  0
   -1.4876    8.6227   15.3380 C   0  0  0  0  0  0  0  0  0  0  0  0
   -1.0564   10.0039   14.9724 C   0  0  0  0  0  0  0  0  0  0  0  0
   -1.5629   11.0078   15.8489 O   0  0  0  0  0  0  0  0  0  0  0  0
   -1.1692   12.3137   15.4299 C   0  0  0  0  0  0  0  0  0  0  0  0
    0.1526   12.2753   14.6929 C   0  0  0  0  0  0  0  0  0  0  0  0
    0.9573   13.4307   14.8140 N   0  0  0  0  0  0  0  0  0  0  0  0
    2.2056   13.3052   14.2088 C   0  0  0  0  0  0  0  0  0  0  0  0
    2.5991   12.2609   13.7020 O   0  0  0  0  0  0  0  0  0  0  0  0
    2.9947   14.5887   14.1146 C   0  0  0  0  0  0  0  0  0  0  0  0
    2.2429   15.7042   14.7647 N   0  3  0  0  0  0  0  0  0  0  0  0
   -5.6263   -1.1969   16.7295 H   0  0  0  0  0  0  0  0  0  0  0  0
   -4.8979   -0.1095   15.5188 H   0  0  0  0  0  0  0  0  0  0  0  0
   -2.7593    3.2929   14.5495 H   0  0  0  0  0  0  0  0  0  0  0  0
   -3.5311    1.4559   15.8869 H   0  0  0  0  0  0  0  0  0  0  0  0
   -7.4071    3.3405   16.2685 H   0  0  0  0  0  0  0  0  0  0  0  0
   -6.6345    5.2362   14.9043 H   0  0  0  0  0  0  0  0  0  0  0  0
   -2.3131    4.8157   13.6437 H   0  0  0  0  0  0  0  0  0  0  0  0
   -3.0771    6.7126   11.6796 H   0  0  0  0  0  0  0  0  0  0  0  0
   -1.4312    6.1997   12.1883 H   0  0  0  0  0  0  0  0  0  0  0  0
   -3.1499    8.2599   13.6671 H   0  0  0  0  0  0  0  0  0  0  0  0
   -1.8927    8.6557   12.4800 H   0  0  0  0  0  0  0  0  0  0  0  0
   -0.9079    8.2905   16.2071 H   0  0  0  0  0  0  0  0  0  0  0  0
   -2.5419    8.6140   15.6024 H   0  0  0  0  0  0  0  0  0  0  0  0
   -1.3061   10.2598   13.9369 H   0  0  0  0  0  0  0  0  0  0  0  0
    0.0292    9.9212   15.0564 H   0  0  0  0  0  0  0  0  0  0  0  0
   -1.0781   12.9418   16.3215 H   0  0  0  0  0  0  0  0  0  0  0  0
   -1.9356   12.7502   14.7774 H   0  0  0  0  0  0  0  0  0  0  0  0
   -0.0340   12.0968   13.6252 H   0  0  0  0  0  0  0  0  0  0  0  0
    0.7980   11.4859   15.0734 H   0  0  0  0  0  0  0  0  0  0  0  0
    0.6422   14.1111   15.4891 H   0  0  0  0  0  0  0  0  0  0  0  0
    3.1276   14.8545   13.0618 H   0  0  0  0  0  0  0  0  0  0  0  0
    3.9587   14.4902   14.6137 H   0  0  0  0  0  0  0  0  0  0  0  0
    2.7223   16.5973   14.7107 H   0  0  0  0  0  0  0  0  0  0  0  0
    1.3185   15.7848   14.3088 H   0  0  0  0  0  0  0  0  0  0  0  0
    2.0924   15.4652   15.7540 H   0  0  0  0  0  0  0  0  0  0  0  0
  1  8  1  0  0  0  0
  1  4  1  0  0  0  0
  1  3  2  0  0  0  0
  1  2  2  0  0  0  0
  4 27  1  0  0  0  0
  4 28  1  0  0  0  0
  5  6  1  0  0  0  0
  5 11  1  0  0  0  0
  5 10  2  0  0  0  0
  6  7  2  0  0  0  0
  6 29  1  0  0  0  0
  7  8  1  0  0  0  0
  7 30  1  0  0  0  0
  8  9  2  0  0  0  0
  9 10  1  0  0  0  0
  9 31  1  0  0  0  0
 10 32  1  0  0  0  0
 11 13  1  0  0  0  0
 11 12  2  0  0  0  0
 13 14  1  0  0  0  0
 13 33  1  0  0  0  0
 14 15  1  0  0  0  0
 14 34  1  0  0  0  0
 14 35  1  0  0  0  0
 15 16  1  0  0  0  0
 15 36  1  0  0  0  0
 15 37  1  0  0  0  0
 16 17  1  0  0  0  0
 17 18  1  0  0  0  0
 17 38  1  0  0  0  0
 17 39  1  0  0  0  0
 18 19  1  0  0  0  0
 18 40  1  0  0  0  0
 18 41  1  0  0  0  0
 19 20  1  0  0  0  0
 20 21  1  0  0  0  0
 20 42  1  0  0  0  0
 20 43  1  0  0  0  0
 21 22  1  0  0  0  0
 21 44  1  0  0  0  0
 21 45  1  0  0  0  0
 22 23  1  0  0  0  0
 22 46  1  0  0  0  0
 23 25  1  0  0  0  0
 23 24  2  0  0  0  0
 25 26  1  0  0  0  0
 25 47  1  0  0  0  0
 25 48  1  0  0  0  0
 26 49  1  0  0  0  0
 26 50  1  0  0  0  0
 26 51  1  0  0  0  0
M  CHG  1  26   1
M  END
$$$$
