EG3
 OpenBabel04041914133D

 64 65  0  0  1  0  0  0  0  0999 V2000
   -6.1102    1.1177   17.1091 S   0  0  0  0  0  0  0  0  0  0  0  0
   -5.5835    1.2182   18.4342 O   0  0  0  0  0  0  0  0  0  0  0  0
   -7.5421    1.0201   16.8388 O   0  0  0  0  0  0  0  0  0  0  0  0
   -5.4278   -0.1719   16.3379 N   0  0  0  0  0  0  0  0  0  0  0  0
   -4.4878    4.6356   14.6945 C   0  0  0  0  0  0  0  0  0  0  0  0
   -3.6415    3.5849   15.0516 C   0  0  0  0  0  0  0  0  0  0  0  0
   -4.1319    2.5150   15.7957 C   0  0  0  0  0  0  0  0  0  0  0  0
   -5.4813    2.4885   16.1703 C   0  0  0  0  0  0  0  0  0  0  0  0
   -6.3530    3.5023   15.7760 C   0  0  0  0  0  0  0  0  0  0  0  0
   -5.8512    4.5850   15.0552 C   0  0  0  0  0  0  0  0  0  0  0  0
   -4.0118    5.7929   13.8965 C   0  0  0  0  0  0  0  0  0  0  0  0
   -4.8258    6.6600   13.5632 O   0  0  0  0  0  0  0  0  0  0  0  0
   -2.6894    5.8642   13.5007 N   0  0  0  0  0  0  0  0  0  0  0  0
   -2.3249    6.8682   12.5210 C   0  0  0  0  0  0  0  0  0  0  0  0
   -1.9855    8.2428   13.1157 C   0  0  0  0  0  0  0  0  0  0  0  0
   -1.0351    8.1422   14.1855 O   0  0  0  0  0  0  0  0  0  0  0  0
   -1.2393    9.0825   15.2595 C   0  0  0  0  0  0  0  0  0  0  0  0
   -1.1035   10.5416   14.8052 C   0  0  0  0  0  0  0  0  0  0  0  0
   -0.3104   11.3223   15.7147 O   0  0  0  0  0  0  0  0  0  0  0  0
    0.6941   12.0560   15.0101 C   0  0  0  0  0  0  0  0  0  0  0  0
    1.4684   12.9625   15.9506 C   0  0  0  0  0  0  0  0  0  0  0  0
    2.3567   13.9032   15.2671 N   0  0  0  0  0  0  0  0  0  0  0  0
    3.1522   14.6946   16.0667 C   0  0  0  0  0  0  0  0  0  0  0  0
    3.0003   14.7273   17.2852 O   0  0  0  0  0  0  0  0  0  0  0  0
    4.1491   15.6486   15.3961 C   0  0  1  0  0  0  0  0  0  0  0  0
    3.4634   16.9517   15.0662 N   0  3  0  0  0  0  0  0  0  0  0  0
    5.3415   15.9327   16.3367 C   0  0  0  0  0  0  0  0  0  0  0  0
    6.3023   16.9454   15.7593 C   0  0  0  0  0  0  0  0  0  0  0  0
    7.1969   16.5661   14.7503 C   0  0  0  0  0  0  0  0  0  0  0  0
    8.0573   17.5046   14.1812 C   0  0  0  0  0  0  0  0  0  0  0  0
    8.0181   18.8318   14.6006 C   0  0  0  0  0  0  0  0  0  0  0  0
    7.1242   19.2222   15.5964 C   0  0  0  0  0  0  0  0  0  0  0  0
    6.2827   18.2800   16.1908 C   0  0  0  0  0  0  0  0  0  0  0  0
   -5.4728   -1.0371   16.8592 H   0  0  0  0  0  0  0  0  0  0  0  0
   -4.6885   -0.0144   15.6655 H   0  0  0  0  0  0  0  0  0  0  0  0
   -2.5986    3.5777   14.7574 H   0  0  0  0  0  0  0  0  0  0  0  0
   -3.4517    1.7152   16.0684 H   0  0  0  0  0  0  0  0  0  0  0  0
   -7.4125    3.4478   16.0230 H   0  0  0  0  0  0  0  0  0  0  0  0
   -6.5340    5.3829   14.7646 H   0  0  0  0  0  0  0  0  0  0  0  0
   -1.9522    5.3196   13.9311 H   0  0  0  0  0  0  0  0  0  0  0  0
   -3.1844    7.0015   11.8486 H   0  0  0  0  0  0  0  0  0  0  0  0
   -1.5084    6.4728   11.9101 H   0  0  0  0  0  0  0  0  0  0  0  0
   -2.9000    8.7488   13.4417 H   0  0  0  0  0  0  0  0  0  0  0  0
   -1.5355    8.8392   12.3123 H   0  0  0  0  0  0  0  0  0  0  0  0
   -0.4877    8.8549   16.0232 H   0  0  0  0  0  0  0  0  0  0  0  0
   -2.2174    8.9032   15.7257 H   0  0  0  0  0  0  0  0  0  0  0  0
   -2.0949   11.0066   14.7521 H   0  0  0  0  0  0  0  0  0  0  0  0
   -0.6645   10.5729   13.8046 H   0  0  0  0  0  0  0  0  0  0  0  0
    0.2235   12.6684   14.2336 H   0  0  0  0  0  0  0  0  0  0  0  0
    1.3905   11.3495   14.5436 H   0  0  0  0  0  0  0  0  0  0  0  0
    2.0811   12.3581   16.6301 H   0  0  0  0  0  0  0  0  0  0  0  0
    0.7821   13.5481   16.5716 H   0  0  0  0  0  0  0  0  0  0  0  0
    2.4289   13.8461   14.2580 H   0  0  0  0  0  0  0  0  0  0  0  0
    4.4920   15.2274   14.4467 H   0  0  0  0  0  0  0  0  0  0  0  0
    4.1338   17.6224   14.6649 H   0  0  0  0  0  0  0  0  0  0  0  0
    2.6996   16.8225   14.3961 H   0  0  0  0  0  0  0  0  0  0  0  0
    5.8872   14.9980   16.5171 H   0  0  0  0  0  0  0  0  0  0  0  0
    5.0034   16.2709   17.3261 H   0  0  0  0  0  0  0  0  0  0  0  0
    7.2545   15.5329   14.4146 H   0  0  0  0  0  0  0  0  0  0  0  0
    8.7723   17.2034   13.4177 H   0  0  0  0  0  0  0  0  0  0  0  0
    8.7033   19.5561   14.1629 H   0  0  0  0  0  0  0  0  0  0  0  0
    7.1032   20.2611   15.9208 H   0  0  0  0  0  0  0  0  0  0  0  0
    5.6309   18.5980   17.0035 H   0  0  0  0  0  0  0  0  0  0  0  0
    3.0680   17.3794   15.9171 H   0  0  0  0  0  0  0  0  0  0  0  0
  1  8  1  0  0  0  0
  1  4  1  0  0  0  0
  1  3  2  0  0  0  0
  1  2  2  0  0  0  0
  4 34  1  0  0  0  0
  4 35  1  0  0  0  0
  5  6  1  0  0  0  0
  5 11  1  0  0  0  0
  5 10  2  0  0  0  0
  6  7  2  0  0  0  0
  6 36  1  0  0  0  0
  7  8  1  0  0  0  0
  7 37  1  0  0  0  0
  8  9  2  0  0  0  0
  9 10  1  0  0  0  0
  9 38  1  0  0  0  0
 10 39  1  0  0  0  0
 11 13  1  0  0  0  0
 11 12  2  0  0  0  0
 13 14  1  0  0  0  0
 13 40  1  0  0  0  0
 14 15  1  0  0  0  0
 14 41  1  0  0  0  0
 14 42  1  0  0  0  0
 15 16  1  0  0  0  0
 15 43  1  0  0  0  0
 15 44  1  0  0  0  0
 16 17  1  0  0  0  0
 17 18  1  0  0  0  0
 17 45  1  0  0  0  0
 17 46  1  0  0  0  0
 18 19  1  0  0  0  0
 18 47  1  0  0  0  0
 18 48  1  0  0  0  0
 19 20  1  0  0  0  0
 20 21  1  0  0  0  0
 20 49  1  0  0  0  0
 20 50  1  0  0  0  0
 21 22  1  0  0  0  0
 21 51  1  0  0  0  0
 21 52  1  0  0  0  0
 22 23  1  0  0  0  0
 22 53  1  0  0  0  0
 23 25  1  0  0  0  0
 23 24  2  0  0  0  0
 25 27  1  0  0  0  0
 25 26  1  0  0  0  0
 25 54  1  6  0  0  0
 26 55  1  0  0  0  0
 26 56  1  0  0  0  0
 26 64  1  0  0  0  0
 27 28  1  0  0  0  0
 27 57  1  0  0  0  0
 27 58  1  0  0  0  0
 28 33  2  0  0  0  0
 28 29  1  0  0  0  0
 29 30  2  0  0  0  0
 29 59  1  0  0  0  0
 30 31  1  0  0  0  0
 30 60  1  0  0  0  0
 31 32  2  0  0  0  0
 31 61  1  0  0  0  0
 32 33  1  0  0  0  0
 32 62  1  0  0  0  0
 33 63  1  0  0  0  0
M  CHG  1  26   1
M  END
$$$$
