EPC
 OpenBabel04041915393D

 34 34  0  0  1  0  0  0  0  0999 V2000
   15.9789   51.0488   19.8385 C   0  0  1  0  0  0  0  0  0  0  0  0
   16.0429   51.3895   18.4008 N   0  0  0  0  0  0  0  0  0  0  0  0
   17.1496   52.5933   13.6355 N   0  0  0  0  0  0  0  0  0  0  0  0
   16.1055   52.8534   14.4504 C   0  0  0  0  0  0  0  0  0  0  0  0
   15.0157   53.7756   13.9545 C   0  0  0  0  0  0  0  0  0  0  0  0
   16.0162   52.3660   15.7592 C   0  0  0  0  0  0  0  0  0  0  0  0
   14.9519   52.8146   16.4636 O   0  0  0  0  0  0  0  0  0  0  0  0
   17.0398   51.5101   16.2399 C   0  0  0  0  0  0  0  0  0  0  0  0
   16.9935   50.9810   17.6497 C   0  0  0  0  0  0  0  0  0  0  0  0
   18.1557   51.2075   15.4218 C   0  0  0  0  0  0  0  0  0  0  0  0
   18.1352   51.7691   14.1227 C   0  0  0  0  0  0  0  0  0  0  0  0
   19.3232   50.3599   15.8597 C   0  0  0  0  0  0  0  0  0  0  0  0
   18.9655   49.0092   16.0193 O   0  0  0  0  0  0  0  0  0  0  0  0
   20.1148   48.0449   16.6925 P   0  0  0  0  0  0  0  0  0  0  0  0
   19.4151   46.6935   16.8749 O   0  0  0  0  0  0  0  0  0  0  0  0
   21.2213   48.0310   15.6648 O   0  0  0  0  0  0  0  0  0  0  0  0
   20.4940   48.7554   17.9807 O   0  0  0  0  0  0  0  0  0  0  0  0
   14.0756   51.0723   20.3688 P   0  0  0  0  0  0  0  0  0  0  0  0
   13.5326   52.3495   19.7157 O   0  0  0  0  0  0  0  0  0  0  0  0
   13.4990   49.7628   19.8323 O   0  0  0  0  0  0  0  0  0  0  0  0
   14.1505   51.1465   21.8952 O   0  0  0  0  0  0  0  0  0  0  0  0
   16.6246   49.7583   20.3145 C   0  0  0  0  0  0  0  0  0  0  0  0
   16.3897   51.9033   20.3858 H   0  0  0  0  0  0  0  0  0  0  0  0
   15.2054   54.1079   12.9277 H   0  0  0  0  0  0  0  0  0  0  0  0
   14.9415   54.6734   14.5808 H   0  0  0  0  0  0  0  0  0  0  0  0
   14.0303   53.2827   13.9621 H   0  0  0  0  0  0  0  0  0  0  0  0
   15.1523   52.7677   17.4365 H   0  0  0  0  0  0  0  0  0  0  0  0
   17.8042   50.3205   18.0033 H   0  0  0  0  0  0  0  0  0  0  0  0
   18.9451   51.5835   13.4482 H   0  0  0  0  0  0  0  0  0  0  0  0
   19.7625   50.7709   16.7870 H   0  0  0  0  0  0  0  0  0  0  0  0
   20.1416   50.4028   15.1008 H   0  0  0  0  0  0  0  0  0  0  0  0
   17.6855   49.7210   20.0568 H   0  0  0  0  0  0  0  0  0  0  0  0
   16.1306   48.8711   19.9095 H   0  0  0  0  0  0  0  0  0  0  0  0
   16.5593   49.6917   21.4068 H   0  0  0  0  0  0  0  0  0  0  0  0
  1 22  1  0  0  0  0
  1 18  1  0  0  0  0
  1  2  1  0  0  0  0
  1 23  1  1  0  0  0
  2  9  2  0  0  0  0
  3  4  1  0  0  0  0
  3 11  2  0  0  0  0
  4  6  2  0  0  0  0
  4  5  1  0  0  0  0
  5 24  1  0  0  0  0
  5 25  1  0  0  0  0
  5 26  1  0  0  0  0
  6  8  1  0  0  0  0
  6  7  1  0  0  0  0
  7 27  1  0  0  0  0
  8  9  1  0  0  0  0
  8 10  2  0  0  0  0
  9 28  1  0  0  0  0
 10 11  1  0  0  0  0
 10 12  1  0  0  0  0
 11 29  1  0  0  0  0
 12 13  1  0  0  0  0
 12 30  1  0  0  0  0
 12 31  1  0  0  0  0
 13 14  1  0  0  0  0
 14 17  2  0  0  0  0
 14 16  1  0  0  0  0
 14 15  1  0  0  0  0
 18 21  2  0  0  0  0
 18 20  1  0  0  0  0
 18 19  1  0  0  0  0
 22 32  1  0  0  0  0
 22 33  1  0  0  0  0
 22 34  1  0  0  0  0
M  END
$$$$
