EQU
 OpenBabel04041916123D

 38 41  0  0  1  0  0  0  0  0999 V2000
   20.1885   76.6221   11.8435 C   0  0  0  0  0  0  0  0  0  0  0  0
   18.8654   76.1825   12.0221 C   0  0  0  0  0  0  0  0  0  0  0  0
   17.9497   76.2667   10.9402 C   0  0  0  0  0  0  0  0  0  0  0  0
   18.3978   76.8067    9.6676 C   0  0  0  0  0  0  0  0  0  0  0  0
   19.7639   77.2325    9.5561 C   0  0  0  0  0  0  0  0  0  0  0  0
   20.6577   77.1442   10.6331 C   0  0  0  0  0  0  0  0  0  0  0  0
   16.5980   75.8305   11.0934 C   0  0  0  0  0  0  0  0  0  0  0  0
   15.6770   75.9181   10.0105 C   0  0  0  0  0  0  0  0  0  0  0  0
   16.0878   76.4176    8.7319 C   0  0  0  0  0  0  0  0  0  0  0  0
   17.4311   76.8830    8.5734 C   0  0  0  0  0  0  0  0  0  0  0  0
   15.1169   76.5570    7.5403 C   0  0  1  0  0  0  0  0  0  0  0  0
   15.7707   76.5002    6.0998 C   0  0  2  0  0  0  0  0  0  0  0  0
   16.8787   77.5321    6.0070 C   0  0  0  0  0  0  0  0  0  0  0  0
   17.8781   77.4472    7.1964 C   0  0  0  0  0  0  0  0  0  0  0  0
   13.9216   75.5925    7.3335 C   0  0  0  0  0  0  0  0  0  0  0  0
   13.2695   76.1488    6.0324 C   0  0  0  0  0  0  0  0  0  0  0  0
   14.4731   76.7520    5.2374 C   0  0  0  0  0  0  0  0  0  0  0  0
   16.3226   75.1352    5.6140 C   0  0  0  0  0  0  0  0  0  0  0  0
   21.0615   76.5382   12.8962 O   0  0  0  0  0  0  0  0  0  0  0  0
   14.4033   77.2856    4.1624 O   0  0  0  0  0  0  0  0  0  0  0  0
   18.5646   75.7831   12.9952 H   0  0  0  0  0  0  0  0  0  0  0  0
   20.1651   77.6489    8.6167 H   0  0  0  0  0  0  0  0  0  0  0  0
   21.6910   77.4712   10.5382 H   0  0  0  0  0  0  0  0  0  0  0  0
   16.2490   75.4137   12.0637 H   0  0  0  0  0  0  0  0  0  0  0  0
   14.6443   75.5762   10.1780 H   0  0  0  0  0  0  0  0  0  0  0  0
   14.6447   77.5573    7.6790 H   0  0  0  0  0  0  0  0  0  0  0  0
   16.4814   78.5561    5.9657 H   0  0  0  0  0  0  0  0  0  0  0  0
   17.4616   77.3941    5.0763 H   0  0  0  0  0  0  0  0  0  0  0  0
   18.7228   76.8394    6.8300 H   0  0  0  0  0  0  0  0  0  0  0  0
   18.2467   78.4761    7.3423 H   0  0  0  0  0  0  0  0  0  0  0  0
   13.2141   75.5738    8.1705 H   0  0  0  0  0  0  0  0  0  0  0  0
   14.2735   74.5603    7.1929 H   0  0  0  0  0  0  0  0  0  0  0  0
   12.5580   76.9439    6.2761 H   0  0  0  0  0  0  0  0  0  0  0  0
   12.7718   75.3631    5.4547 H   0  0  0  0  0  0  0  0  0  0  0  0
   15.5662   74.3364    5.5874 H   0  0  0  0  0  0  0  0  0  0  0  0
   17.1340   74.8052    6.2671 H   0  0  0  0  0  0  0  0  0  0  0  0
   16.7274   75.1884    4.5871 H   0  0  0  0  0  0  0  0  0  0  0  0
   21.9174   76.8824   12.5947 H   0  0  0  0  0  0  0  0  0  0  0  0
  1  6  2  0  0  0  0
  1  2  1  0  0  0  0
  1 19  1  0  0  0  0
  2  3  2  0  0  0  0
  2 21  1  0  0  0  0
  3  4  1  0  0  0  0
  3  7  1  0  0  0  0
  4  5  2  0  0  0  0
  4 10  1  0  0  0  0
  5  6  1  0  0  0  0
  5 22  1  0  0  0  0
  6 23  1  0  0  0  0
  7  8  2  0  0  0  0
  7 24  1  0  0  0  0
  8  9  1  0  0  0  0
  8 25  1  0  0  0  0
  9 10  2  0  0  0  0
  9 11  1  0  0  0  0
 10 14  1  0  0  0  0
 11 12  1  0  0  0  0
 11 15  1  0  0  0  0
 11 26  1  1  0  0  0
 12 13  1  0  0  0  0
 12 17  1  0  0  0  0
 12 18  1  6  0  0  0
 13 14  1  0  0  0  0
 13 27  1  0  0  0  0
 13 28  1  0  0  0  0
 14 29  1  0  0  0  0
 14 30  1  0  0  0  0
 15 16  1  0  0  0  0
 15 31  1  0  0  0  0
 15 32  1  0  0  0  0
 16 17  1  0  0  0  0
 16 33  1  0  0  0  0
 16 34  1  0  0  0  0
 17 20  2  0  0  0  0
 18 35  1  0  0  0  0
 18 36  1  0  0  0  0
 18 37  1  0  0  0  0
 19 38  1  0  0  0  0
M  END
$$$$
