ESI
 OpenBabel04041914093D

 21 22  0  0  0  0  0  0  0  0999 V2000
   44.1387   -3.9403   25.0889 C   0  0  0  0  0  0  0  0  0  0  0  0
   43.9576   -3.3385   26.3437 C   0  0  0  0  0  0  0  0  0  0  0  0
   43.8948   -5.2087   24.9007 N   0  0  0  0  0  0  0  0  0  0  0  0
   44.5655   -3.1698   24.1222 N   0  0  0  0  0  0  0  0  0  0  0  0
   44.1416   -1.6691   26.6424 S   0  0  0  0  0  0  0  0  0  0  0  0
   43.7477   -1.9092   28.2877 C   0  0  0  0  0  0  0  0  0  0  0  0
   43.4955   -3.2605   28.5703 C   0  0  0  0  0  0  0  0  0  0  0  0
   43.6147   -4.0703   27.4360 C   0  0  0  0  0  0  0  0  0  0  0  0
   43.6766   -0.9336   29.2571 C   0  0  0  0  0  0  0  0  0  0  0  0
   43.3265   -1.3508   30.5405 C   0  0  0  0  0  0  0  0  0  0  0  0
   43.0820   -2.6818   30.8545 C   0  0  0  0  0  0  0  0  0  0  0  0
   43.1672   -3.6417   29.8788 C   0  0  0  0  0  0  0  0  0  0  0  0
   42.8289   -5.6387   30.4064 I   0  0  0  0  0  0  0  0  0  0  0  0
   43.5618   -5.8126   25.6410 H   0  0  0  0  0  0  0  0  0  0  0  0
   44.0280   -5.6219   23.9937 H   0  0  0  0  0  0  0  0  0  0  0  0
   44.7466   -2.1896   24.3009 H   0  0  0  0  0  0  0  0  0  0  0  0
   43.4449   -5.1538   27.4636 H   0  0  0  0  0  0  0  0  0  0  0  0
   43.8635    0.1175   29.0602 H   0  0  0  0  0  0  0  0  0  0  0  0
   43.2848   -0.6251   31.3505 H   0  0  0  0  0  0  0  0  0  0  0  0
   42.8153   -2.9757   31.8646 H   0  0  0  0  0  0  0  0  0  0  0  0
   44.7186   -3.5254   23.2000 H   0  0  0  0  0  0  0  0  0  0  0  0
  1  4  2  0  0  0  0
  1  3  1  0  0  0  0
  1  2  1  0  0  0  0
  2  8  2  0  0  0  0
  2  5  1  0  0  0  0
  3 14  1  0  0  0  0
  3 15  1  0  0  0  0
  4 16  1  0  0  0  0
  4 21  1  0  0  0  0
  5  6  1  0  0  0  0
  6  9  2  0  0  0  0
  6  7  1  0  0  0  0
  7 12  2  0  0  0  0
  7  8  1  0  0  0  0
  8 17  1  0  0  0  0
  9 10  1  0  0  0  0
  9 18  1  0  0  0  0
 10 11  2  0  0  0  0
 10 19  1  0  0  0  0
 11 12  1  0  0  0  0
 11 20  1  0  0  0  0
 12 13  1  0  0  0  0
M  END
$$$$
