ESP
 OpenBabel04041914093D

 20 21  0  0  0  0  0  0  0  0999 V2000
   46.0343   18.3081   54.2857 C   0  0  0  0  0  0  0  0  0  0  0  0
   45.6477   19.3411   53.3505 C   0  0  0  0  0  0  0  0  0  0  0  0
   46.7817   18.5949   55.3240 N   0  0  0  0  0  0  0  0  0  0  0  0
   45.6011   17.0982   54.0468 N   0  0  0  0  0  0  0  0  0  0  0  0
   44.8573   19.0237   51.8506 S   0  0  0  0  0  0  0  0  0  0  0  0
   44.8088   20.6802   51.4473 C   0  0  0  0  0  0  0  0  0  0  0  0
   45.3855   21.4418   52.4556 C   0  0  0  0  0  0  0  0  0  0  0  0
   45.8624   20.6749   53.5503 C   0  0  0  0  0  0  0  0  0  0  0  0
   44.2799   21.1454   50.3089 N   0  0  0  0  0  0  0  0  0  0  0  0
   44.3494   22.5074   50.1992 C   0  0  0  0  0  0  0  0  0  0  0  0
   44.9028   23.3697   51.1361 C   0  0  0  0  0  0  0  0  0  0  0  0
   45.4329   22.8273   52.2947 C   0  0  0  0  0  0  0  0  0  0  0  0
   47.1135   19.5377   55.4847 H   0  0  0  0  0  0  0  0  0  0  0  0
   47.0835   17.8830   55.9784 H   0  0  0  0  0  0  0  0  0  0  0  0
   45.0237   16.9444   53.2278 H   0  0  0  0  0  0  0  0  0  0  0  0
   46.3275   21.1650   54.3971 H   0  0  0  0  0  0  0  0  0  0  0  0
   43.9292   22.9414   49.2943 H   0  0  0  0  0  0  0  0  0  0  0  0
   44.9314   24.4352   50.9911 H   0  0  0  0  0  0  0  0  0  0  0  0
   45.8801   23.4231   53.0789 H   0  0  0  0  0  0  0  0  0  0  0  0
   45.8221   16.3087   54.6400 H   0  0  0  0  0  0  0  0  0  0  0  0
  1  4  2  0  0  0  0
  1  3  1  0  0  0  0
  1  2  1  0  0  0  0
  2  8  2  0  0  0  0
  2  5  1  0  0  0  0
  3 13  1  0  0  0  0
  3 14  1  0  0  0  0
  4 15  1  0  0  0  0
  4 20  1  0  0  0  0
  5  6  1  0  0  0  0
  6  9  2  0  0  0  0
  6  7  1  0  0  0  0
  7 12  2  0  0  0  0
  7  8  1  0  0  0  0
  8 16  1  0  0  0  0
  9 10  1  0  0  0  0
 10 11  2  0  0  0  0
 10 17  1  0  0  0  0
 11 12  1  0  0  0  0
 11 18  1  0  0  0  0
 12 19  1  0  0  0  0
M  END
$$$$
