EST
 OpenBabel04041916393D

 44 47  0  0  1  0  0  0  0  0999 V2000
    0.8771   53.1133  165.0158 C   0  0  0  0  0  0  0  0  0  0  0  0
    2.2441   53.1621  164.7762 C   0  0  0  0  0  0  0  0  0  0  0  0
    3.0012   52.0216  164.9196 C   0  0  0  0  0  0  0  0  0  0  0  0
    4.3572   52.0422  164.6978 O   0  0  0  0  0  0  0  0  0  0  0  0
    2.4036   50.8143  165.3145 C   0  0  0  0  0  0  0  0  0  0  0  0
    1.0028   50.7414  165.5544 C   0  0  0  0  0  0  0  0  0  0  0  0
    0.3755   49.4181  165.9603 C   0  0  0  0  0  0  0  0  0  0  0  0
   -1.1446   49.4418  166.2363 C   0  0  0  0  0  0  0  0  0  0  0  0
   -1.9092   50.4491  165.3700 C   0  0  2  0  0  0  0  0  0  0  0  0
   -1.3023   51.8642  165.6129 C   0  0  1  0  0  0  0  0  0  0  0  0
    0.2173   51.8960  165.3792 C   0  0  0  0  0  0  0  0  0  0  0  0
   -2.0771   52.8911  164.7570 C   0  0  0  0  0  0  0  0  0  0  0  0
   -3.6036   52.8842  164.9604 C   0  0  0  0  0  0  0  0  0  0  0  0
   -4.2138   51.4921  164.7656 C   0  0  1  0  0  0  0  0  0  0  0  0
   -3.4354   50.5016  165.6745 C   0  0  1  0  0  0  0  0  0  0  0  0
   -4.3224   49.2572  165.5701 C   0  0  0  0  0  0  0  0  0  0  0  0
   -5.7596   49.8354  165.6935 C   0  0  0  0  0  0  0  0  0  0  0  0
   -5.6585   51.3309  165.3101 C   0  0  2  0  0  0  0  0  0  0  0  0
   -6.6847   51.6880  164.3882 O   0  0  0  0  0  0  0  0  0  0  0  0
   -4.1794   51.1151  163.2642 C   0  0  0  0  0  0  0  0  0  0  0  0
    0.3153   54.0324  164.9104 H   0  0  0  0  0  0  0  0  0  0  0  0
    2.7099   54.1183  164.5109 H   0  0  0  0  0  0  0  0  0  0  0  0
    4.5113   52.4166  163.8141 H   0  0  0  0  0  0  0  0  0  0  0  0
    3.0303   49.9308  165.4233 H   0  0  0  0  0  0  0  0  0  0  0  0
    0.8783   49.0499  166.8646 H   0  0  0  0  0  0  0  0  0  0  0  0
    0.5716   48.6811  165.1708 H   0  0  0  0  0  0  0  0  0  0  0  0
   -1.3059   49.6821  167.2948 H   0  0  0  0  0  0  0  0  0  0  0  0
   -1.5511   48.4363  166.0780 H   0  0  0  0  0  0  0  0  0  0  0  0
   -1.7552   50.1692  164.3205 H   0  0  0  0  0  0  0  0  0  0  0  0
   -1.4521   52.1315  166.6738 H   0  0  0  0  0  0  0  0  0  0  0  0
   -1.8490   52.6976  163.7034 H   0  0  0  0  0  0  0  0  0  0  0  0
   -1.7297   53.9039  164.9755 H   0  0  0  0  0  0  0  0  0  0  0  0
   -4.0522   53.5983  164.2622 H   0  0  0  0  0  0  0  0  0  0  0  0
   -3.8156   53.2471  165.9731 H   0  0  0  0  0  0  0  0  0  0  0  0
   -3.5237   50.8399  166.7201 H   0  0  0  0  0  0  0  0  0  0  0  0
   -4.1178   48.5159  166.3420 H   0  0  0  0  0  0  0  0  0  0  0  0
   -4.2037   48.7633  164.6028 H   0  0  0  0  0  0  0  0  0  0  0  0
   -6.1074   49.7510  166.7308 H   0  0  0  0  0  0  0  0  0  0  0  0
   -6.4710   49.2937  165.0690 H   0  0  0  0  0  0  0  0  0  0  0  0
   -5.8007   51.9610  166.2020 H   0  0  0  0  0  0  0  0  0  0  0  0
   -7.5575   51.5165  164.7989 H   0  0  0  0  0  0  0  0  0  0  0  0
   -3.1795   51.2052  162.8322 H   0  0  0  0  0  0  0  0  0  0  0  0
   -4.8449   51.7582  162.6777 H   0  0  0  0  0  0  0  0  0  0  0  0
   -4.5088   50.0888  163.0831 H   0  0  0  0  0  0  0  0  0  0  0  0
  1  2  2  0  0  0  0
  1 11  1  0  0  0  0
  1 21  1  0  0  0  0
  2  3  1  0  0  0  0
  2 22  1  0  0  0  0
  3  4  1  0  0  0  0
  3  5  2  0  0  0  0
  4 23  1  0  0  0  0
  5  6  1  0  0  0  0
  5 24  1  0  0  0  0
  6  7  1  0  0  0  0
  6 11  2  0  0  0  0
  7  8  1  0  0  0  0
  7 25  1  0  0  0  0
  7 26  1  0  0  0  0
  8  9  1  0  0  0  0
  8 27  1  0  0  0  0
  8 28  1  0  0  0  0
  9 10  1  0  0  0  0
  9 15  1  0  0  0  0
  9 29  1  6  0  0  0
 10 11  1  0  0  0  0
 10 12  1  0  0  0  0
 10 30  1  1  0  0  0
 12 13  1  0  0  0  0
 12 31  1  0  0  0  0
 12 32  1  0  0  0  0
 13 14  1  0  0  0  0
 13 33  1  0  0  0  0
 13 34  1  0  0  0  0
 14 15  1  0  0  0  0
 14 18  1  0  0  0  0
 14 20  1  6  0  0  0
 15 16  1  0  0  0  0
 15 35  1  1  0  0  0
 16 17  1  0  0  0  0
 16 36  1  0  0  0  0
 16 37  1  0  0  0  0
 17 18  1  0  0  0  0
 17 38  1  0  0  0  0
 17 39  1  0  0  0  0
 18 19  1  0  0  0  0
 18 40  1  1  0  0  0
 19 41  1  0  0  0  0
 20 42  1  0  0  0  0
 20 43  1  0  0  0  0
 20 44  1  0  0  0  0
M  END
$$$$
