EST
 OpenBabel04041915333D

 44 47  0  0  1  0  0  0  0  0999 V2000
   20.8488    8.7766   33.1717 C   0  0  0  0  0  0  0  0  0  0  0  0
   19.5296    8.3003   33.2992 C   0  0  0  0  0  0  0  0  0  0  0  0
   18.5001    9.1987   33.5703 C   0  0  0  0  0  0  0  0  0  0  0  0
   17.2540    8.6961   33.6876 O   0  0  0  0  0  0  0  0  0  0  0  0
   18.7993   10.5612   33.7195 C   0  0  0  0  0  0  0  0  0  0  0  0
   20.1335   11.0424   33.5953 C   0  0  0  0  0  0  0  0  0  0  0  0
   20.3845   12.5385   33.7487 C   0  0  0  0  0  0  0  0  0  0  0  0
   21.8640   12.9739   33.6911 C   0  0  0  0  0  0  0  0  0  0  0  0
   22.6838   12.1339   32.7061 C   0  0  2  0  0  0  0  0  0  0  0  0
   22.6274   10.6278   33.1383 C   0  0  1  0  0  0  0  0  0  0  0  0
   21.1721   10.1407   33.2913 C   0  0  0  0  0  0  0  0  0  0  0  0
   23.4753    9.7554   32.1761 C   0  0  0  0  0  0  0  0  0  0  0  0
   24.9181   10.2718   31.9977 C   0  0  0  0  0  0  0  0  0  0  0  0
   24.9424   11.7430   31.5593 C   0  0  1  0  0  0  0  0  0  0  0  0
   24.1578   12.5793   32.6004 C   0  0  1  0  0  0  0  0  0  0  0  0
   24.4962   14.0291   32.2131 C   0  0  0  0  0  0  0  0  0  0  0  0
   25.9224   13.9457   31.6203 C   0  0  0  0  0  0  0  0  0  0  0  0
   26.3088   12.4554   31.6419 C   0  0  2  0  0  0  0  0  0  0  0  0
   27.1763   12.1405   30.5685 O   0  0  0  0  0  0  0  0  0  0  0  0
   24.3846   11.8419   30.1210 C   0  0  0  0  0  0  0  0  0  0  0  0
   21.6135    8.0233   32.9569 H   0  0  0  0  0  0  0  0  0  0  0  0
   19.3198    7.2397   33.1825 H   0  0  0  0  0  0  0  0  0  0  0  0
   16.6319    9.4206   33.8805 H   0  0  0  0  0  0  0  0  0  0  0  0
   18.0011   11.2676   33.9346 H   0  0  0  0  0  0  0  0  0  0  0  0
   19.9674   12.8672   34.7112 H   0  0  0  0  0  0  0  0  0  0  0  0
   19.8381   13.0727   32.9594 H   0  0  0  0  0  0  0  0  0  0  0  0
   22.2977   12.8829   34.6961 H   0  0  0  0  0  0  0  0  0  0  0  0
   21.9110   14.0363   33.4097 H   0  0  0  0  0  0  0  0  0  0  0  0
   22.2212   12.2522   31.7191 H   0  0  0  0  0  0  0  0  0  0  0  0
   23.0989   10.5372   34.1292 H   0  0  0  0  0  0  0  0  0  0  0  0
   22.9810    9.7156   31.1979 H   0  0  0  0  0  0  0  0  0  0  0  0
   23.5274    8.7222   32.5443 H   0  0  0  0  0  0  0  0  0  0  0  0
   25.4323    9.6449   31.2576 H   0  0  0  0  0  0  0  0  0  0  0  0
   25.4413   10.1603   32.9552 H   0  0  0  0  0  0  0  0  0  0  0  0
   24.6151   12.4136   33.5902 H   0  0  0  0  0  0  0  0  0  0  0  0
   24.4750   14.6994   33.0806 H   0  0  0  0  0  0  0  0  0  0  0  0
   23.7902   14.4219   31.4702 H   0  0  0  0  0  0  0  0  0  0  0  0
   26.6392   14.5356   32.2027 H   0  0  0  0  0  0  0  0  0  0  0  0
   25.9452   14.3247   30.5888 H   0  0  0  0  0  0  0  0  0  0  0  0
   26.8055   12.1998   32.5890 H   0  0  0  0  0  0  0  0  0  0  0  0
   27.9725   12.7009   30.6388 H   0  0  0  0  0  0  0  0  0  0  0  0
   23.4198   11.3396   30.0341 H   0  0  0  0  0  0  0  0  0  0  0  0
   25.0646   11.3734   29.3991 H   0  0  0  0  0  0  0  0  0  0  0  0
   24.2348   12.8802   29.8148 H   0  0  0  0  0  0  0  0  0  0  0  0
  1  2  2  0  0  0  0
  1 11  1  0  0  0  0
  1 21  1  0  0  0  0
  2  3  1  0  0  0  0
  2 22  1  0  0  0  0
  3  4  1  0  0  0  0
  3  5  2  0  0  0  0
  4 23  1  0  0  0  0
  5  6  1  0  0  0  0
  5 24  1  0  0  0  0
  6  7  1  0  0  0  0
  6 11  2  0  0  0  0
  7  8  1  0  0  0  0
  7 25  1  0  0  0  0
  7 26  1  0  0  0  0
  8  9  1  0  0  0  0
  8 27  1  0  0  0  0
  8 28  1  0  0  0  0
  9 10  1  0  0  0  0
  9 15  1  0  0  0  0
  9 29  1  6  0  0  0
 10 11  1  0  0  0  0
 10 12  1  0  0  0  0
 10 30  1  1  0  0  0
 12 13  1  0  0  0  0
 12 31  1  0  0  0  0
 12 32  1  0  0  0  0
 13 14  1  0  0  0  0
 13 33  1  0  0  0  0
 13 34  1  0  0  0  0
 14 15  1  0  0  0  0
 14 18  1  0  0  0  0
 14 20  1  6  0  0  0
 15 16  1  0  0  0  0
 15 35  1  1  0  0  0
 16 17  1  0  0  0  0
 16 36  1  0  0  0  0
 16 37  1  0  0  0  0
 17 18  1  0  0  0  0
 17 38  1  0  0  0  0
 17 39  1  0  0  0  0
 18 19  1  0  0  0  0
 18 40  1  1  0  0  0
 19 41  1  0  0  0  0
 20 42  1  0  0  0  0
 20 43  1  0  0  0  0
 20 44  1  0  0  0  0
M  END
$$$$
