ESX
 OpenBabel04041914093D

 21 22  0  0  0  0  0  0  0  0999 V2000
   46.0601   18.1656   54.2300 C   0  0  0  0  0  0  0  0  0  0  0  0
   45.8307   19.2395   53.2801 C   0  0  0  0  0  0  0  0  0  0  0  0
   46.5712   18.4028   55.4165 N   0  0  0  0  0  0  0  0  0  0  0  0
   45.7359   16.9499   53.8421 N   0  0  0  0  0  0  0  0  0  0  0  0
   45.0907   19.0033   51.7542 S   0  0  0  0  0  0  0  0  0  0  0  0
   45.2205   20.6614   51.3272 C   0  0  0  0  0  0  0  0  0  0  0  0
   45.8273   21.3906   52.3512 C   0  0  0  0  0  0  0  0  0  0  0  0
   46.1740   20.5583   53.4700 C   0  0  0  0  0  0  0  0  0  0  0  0
   44.8039   21.2871   50.1375 C   0  0  0  0  0  0  0  0  0  0  0  0
   45.0076   22.6626   49.9959 C   0  0  0  0  0  0  0  0  0  0  0  0
   45.6095   23.3995   51.0066 C   0  0  0  0  0  0  0  0  0  0  0  0
   46.0202   22.7720   52.1829 C   0  0  0  0  0  0  0  0  0  0  0  0
   46.8137   19.3402   55.7137 H   0  0  0  0  0  0  0  0  0  0  0  0
   46.7418   17.6615   56.0830 H   0  0  0  0  0  0  0  0  0  0  0  0
   45.3463   16.8273   52.9092 H   0  0  0  0  0  0  0  0  0  0  0  0
   46.6589   20.9675   54.3476 H   0  0  0  0  0  0  0  0  0  0  0  0
   44.3318   20.7215   49.3356 H   0  0  0  0  0  0  0  0  0  0  0  0
   44.6917   23.1664   49.0841 H   0  0  0  0  0  0  0  0  0  0  0  0
   45.7664   24.4683   50.8904 H   0  0  0  0  0  0  0  0  0  0  0  0
   46.4912   23.3540   52.9709 H   0  0  0  0  0  0  0  0  0  0  0  0
   45.8504   16.1253   54.4217 H   0  0  0  0  0  0  0  0  0  0  0  0
  1  4  2  0  0  0  0
  1  3  1  0  0  0  0
  1  2  1  0  0  0  0
  2  8  2  0  0  0  0
  2  5  1  0  0  0  0
  3 13  1  0  0  0  0
  3 14  1  0  0  0  0
  4 15  1  0  0  0  0
  4 21  1  0  0  0  0
  5  6  1  0  0  0  0
  6  9  2  0  0  0  0
  6  7  1  0  0  0  0
  7 12  2  0  0  0  0
  7  8  1  0  0  0  0
  8 16  1  0  0  0  0
  9 10  1  0  0  0  0
  9 17  1  0  0  0  0
 10 11  2  0  0  0  0
 10 18  1  0  0  0  0
 11 12  1  0  0  0  0
 11 19  1  0  0  0  0
 12 20  1  0  0  0  0
M  END
$$$$
