ETR
 OpenBabel04041914293D

 57 57  0  0  0  0  0  0  0  0999 V2000
   29.9433   21.4700   45.3657 C   0  0  0  0  0  0  0  0  0  0  0  0
   29.5632   21.5413   43.8629 C   0  0  0  0  0  0  0  0  0  0  0  0
   30.0140   20.3832   43.0239 C   0  0  0  0  0  0  0  0  0  0  0  0
   31.2579   19.7859   43.6019 C   0  0  0  0  0  0  0  0  0  0  0  0
   30.9953   19.2758   44.9434 C   0  0  0  0  0  0  0  0  0  0  0  0
   30.3799   20.0667   45.8345 C   0  0  0  0  0  0  0  0  0  0  0  0
   30.3688   19.5900   47.1698 C   0  0  0  0  0  0  0  0  0  0  0  0
   31.5652   19.5244   47.7469 C   0  0  0  0  0  0  0  0  0  0  0  0
   31.6631   19.1726   49.1032 C   0  0  0  0  0  0  0  0  0  0  0  0
   32.9195   19.1239   49.5352 C   0  0  0  0  0  0  0  0  0  0  0  0
   33.1262   18.9379   50.8883 C   0  0  0  0  0  0  0  0  0  0  0  0
   34.4816   18.8347   51.1491 C   0  0  0  0  0  0  0  0  0  0  0  0
   34.9565   18.6757   52.3876 C   0  0  0  0  0  0  0  0  0  0  0  0
   36.2850   18.5064   52.6358 C   0  0  0  0  0  0  0  0  0  0  0  0
   36.4836   18.3071   54.0330 C   0  0  0  0  0  0  0  0  0  0  0  0
   35.7543   18.3237   55.0278 O   0  0  0  0  0  0  0  0  0  0  0  0
   37.7521   17.8665   54.1351 N   0  0  0  0  0  0  0  0  0  0  0  0
   28.5598   21.6250   45.8818 C   0  0  0  0  0  0  0  0  0  0  0  0
   30.7815   22.7488   45.6901 C   0  0  0  0  0  0  0  0  0  0  0  0
   31.5546   17.9326   45.2208 C   0  0  0  0  0  0  0  0  0  0  0  0
   30.3770   18.9334   49.8505 C   0  0  0  0  0  0  0  0  0  0  0  0
   34.0312   18.7705   53.5479 C   0  0  0  0  0  0  0  0  0  0  0  0
   38.0058   16.7816   55.0208 C   0  0  0  0  0  0  0  0  0  0  0  0
   38.3659   17.4693   56.2943 C   0  0  0  0  0  0  0  0  0  0  0  0
   29.8920   22.4871   43.4284 H   0  0  0  0  0  0  0  0  0  0  0  0
   28.4602   21.5638   43.7895 H   0  0  0  0  0  0  0  0  0  0  0  0
   30.1877   20.7354   42.0112 H   0  0  0  0  0  0  0  0  0  0  0  0
   29.2168   19.6224   42.9964 H   0  0  0  0  0  0  0  0  0  0  0  0
   32.0694   20.5284   43.6205 H   0  0  0  0  0  0  0  0  0  0  0  0
   31.5862   18.9461   42.9834 H   0  0  0  0  0  0  0  0  0  0  0  0
   29.4696   19.1473   47.5982 H   0  0  0  0  0  0  0  0  0  0  0  0
   32.4612   19.7618   47.1708 H   0  0  0  0  0  0  0  0  0  0  0  0
   33.7700   19.2249   48.8525 H   0  0  0  0  0  0  0  0  0  0  0  0
   32.3130   18.9032   51.5648 H   0  0  0  0  0  0  0  0  0  0  0  0
   35.1763   18.8867   50.3495 H   0  0  0  0  0  0  0  0  0  0  0  0
   36.9203   18.4749   51.8002 H   0  0  0  0  0  0  0  0  0  0  0  0
   38.3947   18.4909   53.6826 H   0  0  0  0  0  0  0  0  0  0  0  0
   28.5310   21.6174   46.9590 H   0  0  0  0  0  0  0  0  0  0  0  0
   27.9878   20.7642   45.4794 H   0  0  0  0  0  0  0  0  0  0  0  0
   28.1373   22.5522   45.4821 H   0  0  0  0  0  0  0  0  0  0  0  0
   31.1448   22.7575   46.7157 H   0  0  0  0  0  0  0  0  0  0  0  0
   30.1339   23.6441   45.5577 H   0  0  0  0  0  0  0  0  0  0  0  0
   31.6381   22.8933   45.0085 H   0  0  0  0  0  0  0  0  0  0  0  0
   31.3598   17.5532   46.2235 H   0  0  0  0  0  0  0  0  0  0  0  0
   32.6382   17.9656   45.0657 H   0  0  0  0  0  0  0  0  0  0  0  0
   31.1133   17.2353   44.5072 H   0  0  0  0  0  0  0  0  0  0  0  0
   29.4842   19.1321   49.2475 H   0  0  0  0  0  0  0  0  0  0  0  0
   30.1890   19.6117   50.6971 H   0  0  0  0  0  0  0  0  0  0  0  0
   30.2420   17.8968   50.1279 H   0  0  0  0  0  0  0  0  0  0  0  0
   33.0329   18.9208   53.1888 H   0  0  0  0  0  0  0  0  0  0  0  0
   34.2866   19.6483   54.1497 H   0  0  0  0  0  0  0  0  0  0  0  0
   34.0058   17.8332   54.1058 H   0  0  0  0  0  0  0  0  0  0  0  0
   38.8302   16.1879   54.6093 H   0  0  0  0  0  0  0  0  0  0  0  0
   37.1432   16.1066   55.1511 H   0  0  0  0  0  0  0  0  0  0  0  0
   38.6551   16.7657   57.0692 H   0  0  0  0  0  0  0  0  0  0  0  0
   37.5071   18.0591   56.6346 H   0  0  0  0  0  0  0  0  0  0  0  0
   39.1879   18.1589   56.0830 H   0  0  0  0  0  0  0  0  0  0  0  0
  1 19  1  0  0  0  0
  1 18  1  0  0  0  0
  1  6  1  0  0  0  0
  1  2  1  0  0  0  0
  2  3  1  0  0  0  0
  2 25  1  0  0  0  0
  2 26  1  0  0  0  0
  3  4  1  0  0  0  0
  3 27  1  0  0  0  0
  3 28  1  0  0  0  0
  4  5  1  0  0  0  0
  4 29  1  0  0  0  0
  4 30  1  0  0  0  0
  5 20  1  0  0  0  0
  5  6  2  0  0  0  0
  6  7  1  0  0  0  0
  7  8  2  0  0  0  0
  7 31  1  0  0  0  0
  8  9  1  0  0  0  0
  8 32  1  0  0  0  0
  9 21  1  0  0  0  0
  9 10  2  0  0  0  0
 10 11  1  0  0  0  0
 10 33  1  0  0  0  0
 11 12  2  0  0  0  0
 11 34  1  0  0  0  0
 12 13  1  0  0  0  0
 12 35  1  0  0  0  0
 13 22  1  0  0  0  0
 13 14  2  0  0  0  0
 14 15  1  0  0  0  0
 14 36  1  0  0  0  0
 15 17  1  0  0  0  0
 15 16  2  0  0  0  0
 17 23  1  0  0  0  0
 17 37  1  0  0  0  0
 18 38  1  0  0  0  0
 18 39  1  0  0  0  0
 18 40  1  0  0  0  0
 19 41  1  0  0  0  0
 19 42  1  0  0  0  0
 19 43  1  0  0  0  0
 20 44  1  0  0  0  0
 20 45  1  0  0  0  0
 20 46  1  0  0  0  0
 21 47  1  0  0  0  0
 21 48  1  0  0  0  0
 21 49  1  0  0  0  0
 22 50  1  0  0  0  0
 22 51  1  0  0  0  0
 22 52  1  0  0  0  0
 23 24  1  0  0  0  0
 23 53  1  0  0  0  0
 23 54  1  0  0  0  0
 24 55  1  0  0  0  0
 24 56  1  0  0  0  0
 24 57  1  0  0  0  0
M  END
$$$$
