F2B
 OpenBabel04041914453D

 34 35  0  0  0  0  0  0  0  0999 V2000
   -3.7491    3.4266   14.8406 C   0  0  0  0  0  0  0  0  0  0  0  0
   -4.2056    2.3348   15.5864 C   0  0  0  0  0  0  0  0  0  0  0  0
   -5.5520    2.2512   15.9399 C   0  0  0  0  0  0  0  0  0  0  0  0
   -6.4434    3.2620   15.5665 C   0  0  0  0  0  0  0  0  0  0  0  0
   -5.9798    4.3603   14.8224 C   0  0  0  0  0  0  0  0  0  0  0  0
   -4.6257    4.4528   14.4373 C   0  0  0  0  0  0  0  0  0  0  0  0
   -4.1870    5.6448   13.6340 C   0  0  0  0  0  0  0  0  0  0  0  0
   -4.9795    6.5109   13.3229 O   0  0  0  0  0  0  0  0  0  0  0  0
   -2.8378    5.6903   13.2862 N   0  0  0  0  0  0  0  0  0  0  0  0
   -2.2310    6.7870   12.5583 C   0  0  0  0  0  0  0  0  0  0  0  0
   -6.0924    0.8986   16.9581 S   0  0  0  0  0  0  0  0  0  0  0  0
   -5.5845   -0.4639   16.1458 N   0  0  0  0  0  0  0  0  0  0  0  0
   -7.5389    0.8778   16.9500 O   0  0  0  0  0  0  0  0  0  0  0  0
   -5.3339    0.9466   18.1862 O   0  0  0  0  0  0  0  0  0  0  0  0
   -1.6404    7.8601   13.4396 C   0  0  0  0  0  0  0  0  0  0  0  0
   -1.9248    7.9719   14.8107 C   0  0  0  0  0  0  0  0  0  0  0  0
   -1.3787    9.0058   15.5786 C   0  0  0  0  0  0  0  0  0  0  0  0
   -0.5434    9.9495   14.9862 C   0  0  0  0  0  0  0  0  0  0  0  0
   -0.2551    9.8495   13.6305 C   0  0  0  0  0  0  0  0  0  0  0  0
   -0.7943    8.8194   12.8649 C   0  0  0  0  0  0  0  0  0  0  0  0
    0.5520   10.7572   13.0645 F   0  0  0  0  0  0  0  0  0  0  0  0
   -0.4951    8.7406   11.5594 F   0  0  0  0  0  0  0  0  0  0  0  0
   -2.6953    3.4479   14.6000 H   0  0  0  0  0  0  0  0  0  0  0  0
   -3.4987    1.5730   15.9051 H   0  0  0  0  0  0  0  0  0  0  0  0
   -7.4866    3.2177   15.8638 H   0  0  0  0  0  0  0  0  0  0  0  0
   -6.6793    5.1493   14.5539 H   0  0  0  0  0  0  0  0  0  0  0  0
   -2.1969    4.9971   13.6196 H   0  0  0  0  0  0  0  0  0  0  0  0
   -2.9508    7.2203   11.8585 H   0  0  0  0  0  0  0  0  0  0  0  0
   -1.4157    6.3241   11.9863 H   0  0  0  0  0  0  0  0  0  0  0  0
   -6.0039   -1.3289   16.4754 H   0  0  0  0  0  0  0  0  0  0  0  0
   -5.2771   -0.4017   15.1819 H   0  0  0  0  0  0  0  0  0  0  0  0
   -2.5864    7.2620   15.3004 H   0  0  0  0  0  0  0  0  0  0  0  0
   -1.6187    9.0749   16.6371 H   0  0  0  0  0  0  0  0  0  0  0  0
   -0.1216   10.7615   15.5700 H   0  0  0  0  0  0  0  0  0  0  0  0
  1  6  2  0  0  0  0
  1  2  1  0  0  0  0
  1 23  1  0  0  0  0
  2  3  2  0  0  0  0
  2 24  1  0  0  0  0
  3 11  1  0  0  0  0
  3  4  1  0  0  0  0
  4  5  2  0  0  0  0
  4 25  1  0  0  0  0
  5  6  1  0  0  0  0
  5 26  1  0  0  0  0
  6  7  1  0  0  0  0
  7  9  1  0  0  0  0
  7  8  2  0  0  0  0
  9 10  1  0  0  0  0
  9 27  1  0  0  0  0
 10 15  1  0  0  0  0
 10 28  1  0  0  0  0
 10 29  1  0  0  0  0
 11 14  2  0  0  0  0
 11 13  2  0  0  0  0
 11 12  1  0  0  0  0
 12 30  1  0  0  0  0
 12 31  1  0  0  0  0
 15 20  2  0  0  0  0
 15 16  1  0  0  0  0
 16 17  2  0  0  0  0
 16 32  1  0  0  0  0
 17 18  1  0  0  0  0
 17 33  1  0  0  0  0
 18 19  2  0  0  0  0
 18 34  1  0  0  0  0
 19 20  1  0  0  0  0
 19 21  1  0  0  0  0
 20 22  1  0  0  0  0
M  END
$$$$
