F6B
 OpenBabel04041914453D

 34 35  0  0  0  0  0  0  0  0999 V2000
   -3.7365    3.4258   14.6525 C   0  0  0  0  0  0  0  0  0  0  0  0
   -4.1571    2.3158   15.4156 C   0  0  0  0  0  0  0  0  0  0  0  0
   -5.4914    2.2178   15.8292 C   0  0  0  0  0  0  0  0  0  0  0  0
   -6.3876    3.2292   15.4951 C   0  0  0  0  0  0  0  0  0  0  0  0
   -5.9541    4.3317   14.7509 C   0  0  0  0  0  0  0  0  0  0  0  0
   -4.6198    4.4305   14.2916 C   0  0  0  0  0  0  0  0  0  0  0  0
   -4.2580    5.6316   13.4916 C   0  0  0  0  0  0  0  0  0  0  0  0
   -5.1553    6.4309   13.2929 O   0  0  0  0  0  0  0  0  0  0  0  0
   -2.9597    5.9081   13.0310 N   0  0  0  0  0  0  0  0  0  0  0  0
   -2.6964    7.3117   12.6929 C   0  0  0  0  0  0  0  0  0  0  0  0
   -6.0275    0.8830   16.8476 S   0  0  0  0  0  0  0  0  0  0  0  0
   -5.5583   -0.5452   16.0632 N   0  0  0  0  0  0  0  0  0  0  0  0
   -7.4851    0.9034   16.8689 O   0  0  0  0  0  0  0  0  0  0  0  0
   -5.2833    0.9428   18.0876 O   0  0  0  0  0  0  0  0  0  0  0  0
   -1.5251    7.9370   13.3872 C   0  0  0  0  0  0  0  0  0  0  0  0
   -0.2795    7.9721   12.7480 C   0  0  0  0  0  0  0  0  0  0  0  0
    0.7973    8.6077   13.3560 C   0  0  0  0  0  0  0  0  0  0  0  0
    0.6161    9.2193   14.6078 C   0  0  0  0  0  0  0  0  0  0  0  0
   -0.6303    9.2107   15.2486 C   0  0  0  0  0  0  0  0  0  0  0  0
   -1.6961    8.5725   14.6318 C   0  0  0  0  0  0  0  0  0  0  0  0
   -0.1296    7.3952   11.5417 F   0  0  0  0  0  0  0  0  0  0  0  0
   -2.8963    8.5766   15.2390 F   0  0  0  0  0  0  0  0  0  0  0  0
   -2.7017    3.4877   14.3415 H   0  0  0  0  0  0  0  0  0  0  0  0
   -3.4401    1.5513   15.6981 H   0  0  0  0  0  0  0  0  0  0  0  0
   -7.4299    3.1868   15.8319 H   0  0  0  0  0  0  0  0  0  0  0  0
   -6.6779    5.1194   14.5182 H   0  0  0  0  0  0  0  0  0  0  0  0
   -2.2893    5.1990   12.7677 H   0  0  0  0  0  0  0  0  0  0  0  0
   -3.5576    7.9158   12.9938 H   0  0  0  0  0  0  0  0  0  0  0  0
   -2.5587    7.4345   11.6117 H   0  0  0  0  0  0  0  0  0  0  0  0
   -5.7421   -1.4586   16.4991 H   0  0  0  0  0  0  0  0  0  0  0  0
   -5.0274   -0.5354   15.1941 H   0  0  0  0  0  0  0  0  0  0  0  0
    1.7668    8.6198   12.8640 H   0  0  0  0  0  0  0  0  0  0  0  0
    1.4533    9.7102   15.0954 H   0  0  0  0  0  0  0  0  0  0  0  0
   -0.7800    9.6858   16.2191 H   0  0  0  0  0  0  0  0  0  0  0  0
  1  6  2  0  0  0  0
  1  2  1  0  0  0  0
  1 23  1  0  0  0  0
  2  3  2  0  0  0  0
  2 24  1  0  0  0  0
  3 11  1  0  0  0  0
  3  4  1  0  0  0  0
  4  5  2  0  0  0  0
  4 25  1  0  0  0  0
  5  6  1  0  0  0  0
  5 26  1  0  0  0  0
  6  7  1  0  0  0  0
  7  9  1  0  0  0  0
  7  8  2  0  0  0  0
  9 10  1  0  0  0  0
  9 27  1  0  0  0  0
 10 15  1  0  0  0  0
 10 28  1  0  0  0  0
 10 29  1  0  0  0  0
 11 14  2  0  0  0  0
 11 13  2  0  0  0  0
 11 12  1  0  0  0  0
 12 30  1  0  0  0  0
 12 31  1  0  0  0  0
 15 20  2  0  0  0  0
 15 16  1  0  0  0  0
 16 17  2  0  0  0  0
 16 21  1  0  0  0  0
 17 18  1  0  0  0  0
 17 32  1  0  0  0  0
 18 19  2  0  0  0  0
 18 33  1  0  0  0  0
 19 20  1  0  0  0  0
 19 34  1  0  0  0  0
 20 22  1  0  0  0  0
M  END
$$$$
