F6B
 OpenBabel04041914453D

 34 35  0  0  0  0  0  0  0  0999 V2000
   -3.7555    3.5211   14.8169 C   0  0  0  0  0  0  0  0  0  0  0  0
   -4.1948    2.3913   15.5434 C   0  0  0  0  0  0  0  0  0  0  0  0
   -5.5457    2.2477   15.8928 C   0  0  0  0  0  0  0  0  0  0  0  0
   -6.4612    3.2385   15.5450 C   0  0  0  0  0  0  0  0  0  0  0  0
   -6.0197    4.3551   14.8295 C   0  0  0  0  0  0  0  0  0  0  0  0
   -4.6684    4.5096   14.4418 C   0  0  0  0  0  0  0  0  0  0  0  0
   -4.3488    5.7809   13.7140 C   0  0  0  0  0  0  0  0  0  0  0  0
   -5.2806    6.5140   13.4372 O   0  0  0  0  0  0  0  0  0  0  0  0
   -3.0402    6.1472   13.3986 N   0  0  0  0  0  0  0  0  0  0  0  0
   -2.8536    7.5146   12.9229 C   0  0  0  0  0  0  0  0  0  0  0  0
   -6.0971    0.8571   16.8631 S   0  0  0  0  0  0  0  0  0  0  0  0
   -5.6074   -0.4791   16.0177 N   0  0  0  0  0  0  0  0  0  0  0  0
   -7.5409    0.8321   16.8504 O   0  0  0  0  0  0  0  0  0  0  0  0
   -5.3478    0.8679   18.0970 O   0  0  0  0  0  0  0  0  0  0  0  0
   -1.6556    8.2228   13.4812 C   0  0  0  0  0  0  0  0  0  0  0  0
   -0.4080    8.1430   12.8686 C   0  0  0  0  0  0  0  0  0  0  0  0
    0.6789    8.8836   13.3351 C   0  0  0  0  0  0  0  0  0  0  0  0
    0.5269    9.7263   14.4368 C   0  0  0  0  0  0  0  0  0  0  0  0
   -0.7139    9.8244   15.0614 C   0  0  0  0  0  0  0  0  0  0  0  0
   -1.7868    9.0750   14.5830 C   0  0  0  0  0  0  0  0  0  0  0  0
   -0.2463    7.3689   11.7863 F   0  0  0  0  0  0  0  0  0  0  0  0
   -2.9774    9.2199   15.1822 F   0  0  0  0  0  0  0  0  0  0  0  0
   -2.6996    3.6185   14.5827 H   0  0  0  0  0  0  0  0  0  0  0  0
   -3.4739    1.6422   15.8659 H   0  0  0  0  0  0  0  0  0  0  0  0
   -7.5056    3.1760   15.8455 H   0  0  0  0  0  0  0  0  0  0  0  0
   -6.7455    5.1334   14.5946 H   0  0  0  0  0  0  0  0  0  0  0  0
   -2.3244    5.4594   13.2287 H   0  0  0  0  0  0  0  0  0  0  0  0
   -3.7249    8.1149   13.2007 H   0  0  0  0  0  0  0  0  0  0  0  0
   -2.8290    7.5224   11.8268 H   0  0  0  0  0  0  0  0  0  0  0  0
   -5.8515   -1.3779   16.4236 H   0  0  0  0  0  0  0  0  0  0  0  0
   -5.1416   -0.4128   15.1211 H   0  0  0  0  0  0  0  0  0  0  0  0
    1.6357    8.8091   12.8267 H   0  0  0  0  0  0  0  0  0  0  0  0
    1.3680   10.3095   14.8029 H   0  0  0  0  0  0  0  0  0  0  0  0
   -0.8616   10.4880   15.9092 H   0  0  0  0  0  0  0  0  0  0  0  0
  1  6  2  0  0  0  0
  1  2  1  0  0  0  0
  1 23  1  0  0  0  0
  2  3  2  0  0  0  0
  2 24  1  0  0  0  0
  3 11  1  0  0  0  0
  3  4  1  0  0  0  0
  4  5  2  0  0  0  0
  4 25  1  0  0  0  0
  5  6  1  0  0  0  0
  5 26  1  0  0  0  0
  6  7  1  0  0  0  0
  7  9  1  0  0  0  0
  7  8  2  0  0  0  0
  9 10  1  0  0  0  0
  9 27  1  0  0  0  0
 10 15  1  0  0  0  0
 10 28  1  0  0  0  0
 10 29  1  0  0  0  0
 11 14  2  0  0  0  0
 11 13  2  0  0  0  0
 11 12  1  0  0  0  0
 12 30  1  0  0  0  0
 12 31  1  0  0  0  0
 15 20  2  0  0  0  0
 15 16  1  0  0  0  0
 16 17  2  0  0  0  0
 16 21  1  0  0  0  0
 17 18  1  0  0  0  0
 17 32  1  0  0  0  0
 18 19  2  0  0  0  0
 18 33  1  0  0  0  0
 19 20  1  0  0  0  0
 19 34  1  0  0  0  0
 20 22  1  0  0  0  0
M  END
$$$$
