FA3
 OpenBabel04041917163D

 21 21  0  0  1  0  0  0  0  0999 V2000
   29.3808   51.4628   57.8957 C   0  0  0  0  0  0  0  0  0  0  0  0
   27.7183   50.3638   61.5155 F   0  0  0  0  0  0  0  0  0  0  0  0
   28.5570   50.1895   57.8609 C   0  0  1  0  0  0  0  0  0  0  0  0
   29.2461   49.2433   57.0276 O   0  0  0  0  0  0  0  0  0  0  0  0
   28.4455   49.6559   59.2927 C   0  0  2  0  0  0  0  0  0  0  0  0
   27.4741   48.6001   59.3277 O   0  0  0  0  0  0  0  0  0  0  0  0
   28.0951   50.7309   60.2606 C   0  0  0  0  0  0  0  0  0  0  0  0
   28.1385   52.0310   59.9788 C   0  0  0  0  0  0  0  0  0  0  0  0
   29.5164   53.7954   58.8604 C   0  0  0  0  0  0  0  0  0  0  0  0
   30.7413   53.6938   58.6153 O   0  0  0  0  0  0  0  0  0  0  0  0
   27.4516   52.8993   57.8712 O   0  0  0  0  0  0  0  0  0  0  0  0
   28.8588   54.8075   59.2795 O   0  0  0  0  0  0  0  0  0  0  0  0
   28.6210   52.5423   58.6421 C   0  0  1  0  0  0  0  0  0  0  0  0
   29.6028   51.7866   56.8833 H   0  0  0  0  0  0  0  0  0  0  0  0
   30.3345   51.2414   58.4062 H   0  0  0  0  0  0  0  0  0  0  0  0
   27.5579   50.3683   57.4376 H   0  0  0  0  0  0  0  0  0  0  0  0
   28.7014   48.4392   57.0314 H   0  0  0  0  0  0  0  0  0  0  0  0
   29.4129   49.2171   59.5826 H   0  0  0  0  0  0  0  0  0  0  0  0
   27.4185   48.3331   60.2610 H   0  0  0  0  0  0  0  0  0  0  0  0
   27.8882   52.7654   60.7467 H   0  0  0  0  0  0  0  0  0  0  0  0
   27.1228   53.7054   58.3186 H   0  0  0  0  0  0  0  0  0  0  0  0
  1  3  1  0  0  0  0
  1 13  1  0  0  0  0
  1 14  1  0  0  0  0
  1 15  1  0  0  0  0
  2  7  1  0  0  0  0
  3  4  1  0  0  0  0
  3  5  1  0  0  0  0
  3 16  1  6  0  0  0
  4 17  1  0  0  0  0
  5  6  1  0  0  0  0
  5  7  1  0  0  0  0
  5 18  1  1  0  0  0
  6 19  1  0  0  0  0
  7  8  2  0  0  0  0
  8 13  1  0  0  0  0
  8 20  1  0  0  0  0
  9 10  2  0  0  0  0
  9 12  1  0  0  0  0
 11 13  1  0  0  0  0
 11 21  1  0  0  0  0
 13  9  1  1  0  0  0
M  END
$$$$
