FBA
 OpenBabel04041917003D

 18 18  0  0  0  0  0  0  0  0999 V2000
   29.1358   14.9564   16.5991 C   0  0  0  0  0  0  0  0  0  0  0  0
   29.4851   13.5925   16.6678 C   0  0  0  0  0  0  0  0  0  0  0  0
   29.4626   12.9212   17.8920 C   0  0  0  0  0  0  0  0  0  0  0  0
   29.0747   13.6002   19.0373 C   0  0  0  0  0  0  0  0  0  0  0  0
   28.7201   14.9419   18.9910 C   0  0  0  0  0  0  0  0  0  0  0  0
   28.7530   15.6210   17.7720 C   0  0  0  0  0  0  0  0  0  0  0  0
   29.1402   15.6990   15.2944 C   0  0  0  0  0  0  0  0  0  0  0  0
   30.4266   15.5471   14.5861 N   0  3  0  0  0  0  0  0  0  0  0  0
   29.0404   12.9502   20.2077 F   0  0  0  0  0  0  0  0  0  0  0  0
   29.7705   13.0232   15.7861 H   0  0  0  0  0  0  0  0  0  0  0  0
   29.7344   11.8709   17.9609 H   0  0  0  0  0  0  0  0  0  0  0  0
   28.4157   15.4471   19.9018 H   0  0  0  0  0  0  0  0  0  0  0  0
   28.4686   16.6741   17.7582 H   0  0  0  0  0  0  0  0  0  0  0  0
   29.0072   16.7757   15.4480 H   0  0  0  0  0  0  0  0  0  0  0  0
   28.3484   15.3356   14.6339 H   0  0  0  0  0  0  0  0  0  0  0  0
   30.4392   16.0783   13.7092 H   0  0  0  0  0  0  0  0  0  0  0  0
   31.1977   15.8778   15.1793 H   0  0  0  0  0  0  0  0  0  0  0  0
   30.6096   14.5633   14.3639 H   0  0  0  0  0  0  0  0  0  0  0  0
  1  2  2  0  0  0  0
  1  6  1  0  0  0  0
  1  7  1  0  0  0  0
  2  3  1  0  0  0  0
  2 10  1  0  0  0  0
  3  4  2  0  0  0  0
  3 11  1  0  0  0  0
  4  5  1  0  0  0  0
  4  9  1  0  0  0  0
  5  6  2  0  0  0  0
  5 12  1  0  0  0  0
  6 13  1  0  0  0  0
  7  8  1  0  0  0  0
  7 14  1  0  0  0  0
  7 15  1  0  0  0  0
  8 16  1  0  0  0  0
  8 17  1  0  0  0  0
  8 18  1  0  0  0  0
M  CHG  1   8   1
M  END
$$$$
