FD1
 OpenBabel04041915133D

 64 67  0  0  1  0  0  0  0  0999 V2000
   -1.9577   16.3581   17.9233 C   0  0  0  0  0  0  0  0  0  0  0  0
   -2.1780   15.7528   16.6812 C   0  0  0  0  0  0  0  0  0  0  0  0
   -1.2348   15.6576   18.8908 C   0  0  0  0  0  0  0  0  0  0  0  0
   -0.7356   14.3892   18.6287 C   0  0  0  0  0  0  0  0  0  0  0  0
   -0.9563   13.7992   17.3888 C   0  0  0  0  0  0  0  0  0  0  0  0
   -1.6907   14.4621   16.3871 C   0  0  0  0  0  0  0  0  0  0  0  0
   -1.9405   13.8306   15.0718 C   0  0  0  0  0  0  0  0  0  0  0  0
   -1.5386   12.6002   14.8180 N   0  0  0  0  0  0  0  0  0  0  0  0
   -2.5465   14.4909   14.1088 N   0  0  0  0  0  0  0  0  0  0  0  0
   -2.4720   17.7540   18.2160 C   0  0  0  0  0  0  0  0  0  0  0  0
   -1.5936   18.9244   17.7373 C   0  0  1  0  0  0  0  0  0  0  0  0
   -0.0971   18.6553   17.9576 C   0  0  0  0  0  0  0  0  0  0  0  0
    0.5560   18.1266   17.0450 O   0  0  0  0  0  0  0  0  0  0  0  0
    0.4609   18.9920   19.1794 N   0  0  0  0  0  0  0  0  0  0  0  0
   -0.2029   19.7655   20.2694 C   0  0  2  0  0  0  0  0  0  0  0  0
    0.6408   21.0007   20.5849 C   0  0  0  0  0  0  0  0  0  0  0  0
    2.7240   19.5814   19.9165 C   0  0  0  0  0  0  0  0  0  0  0  0
    1.7598   18.4592   19.5695 C   0  0  0  0  0  0  0  0  0  0  0  0
    2.1308   20.7147   20.7565 C   0  0  0  0  0  0  0  0  0  0  0  0
   -0.6092   18.9432   21.5305 C   0  0  0  0  0  0  0  0  0  0  0  0
   -0.9852   19.6294   22.5311 O   0  0  0  0  0  0  0  0  0  0  0  0
   -0.5815   17.6888   21.4121 O   0  0  0  0  0  0  0  0  0  0  0  0
   -1.9064   19.2041   16.3109 N   0  0  0  0  0  0  0  0  0  0  0  0
   -2.1767   20.7879   15.8473 S   0  0  0  0  0  0  0  0  0  0  0  0
   -2.4368   20.7563   14.4269 O   0  0  0  0  0  0  0  0  0  0  0  0
   -3.1323   21.3509   16.7772 O   0  0  0  0  0  0  0  0  0  0  0  0
   -0.6176   21.6065   16.0832 C   0  0  0  0  0  0  0  0  0  0  0  0
    0.5105   21.1260   15.4203 C   0  0  0  0  0  0  0  0  0  0  0  0
    1.7373   21.7797   15.5798 C   0  0  0  0  0  0  0  0  0  0  0  0
    0.6871   23.4150   17.0466 C   0  0  0  0  0  0  0  0  0  0  0  0
    1.8427   22.9265   16.3888 C   0  0  0  0  0  0  0  0  0  0  0  0
   -0.5374   22.7491   16.8861 C   0  0  0  0  0  0  0  0  0  0  0  0
    3.0623   23.6055   16.5673 C   0  0  0  0  0  0  0  0  0  0  0  0
    3.1400   24.7440   17.3759 C   0  0  0  0  0  0  0  0  0  0  0  0
    2.0010   25.2190   18.0184 C   0  0  0  0  0  0  0  0  0  0  0  0
    0.7834   24.5595   17.8524 C   0  0  0  0  0  0  0  0  0  0  0  0
   -2.7505   16.3300   15.9623 H   0  0  0  0  0  0  0  0  0  0  0  0
   -1.0392   16.0997   19.8654 H   0  0  0  0  0  0  0  0  0  0  0  0
   -0.1657   13.8727   19.3995 H   0  0  0  0  0  0  0  0  0  0  0  0
   -0.5386   12.8092   17.2538 H   0  0  0  0  0  0  0  0  0  0  0  0
   -1.6902   12.1574   13.9256 H   0  0  0  0  0  0  0  0  0  0  0  0
   -1.0626   12.0553   15.5211 H   0  0  0  0  0  0  0  0  0  0  0  0
   -2.7268   14.0935   13.1959 H   0  0  0  0  0  0  0  0  0  0  0  0
   -2.6450   17.8476   19.2940 H   0  0  0  0  0  0  0  0  0  0  0  0
   -3.4660   17.8481   17.7556 H   0  0  0  0  0  0  0  0  0  0  0  0
   -1.9114   19.8086   18.2823 H   0  0  0  0  0  0  0  0  0  0  0  0
   -1.1566   20.1597   19.9202 H   0  0  0  0  0  0  0  0  0  0  0  0
    0.2795   21.4988   21.4930 H   0  0  0  0  0  0  0  0  0  0  0  0
    0.5133   21.7362   19.7805 H   0  0  0  0  0  0  0  0  0  0  0  0
    3.5841   19.1641   20.4560 H   0  0  0  0  0  0  0  0  0  0  0  0
    3.1167   19.9966   18.9821 H   0  0  0  0  0  0  0  0  0  0  0  0
    2.1849   17.8263   18.7837 H   0  0  0  0  0  0  0  0  0  0  0  0
    1.6312   17.8020   20.4370 H   0  0  0  0  0  0  0  0  0  0  0  0
    2.3140   20.5011   21.8149 H   0  0  0  0  0  0  0  0  0  0  0  0
    2.6839   21.6345   20.5270 H   0  0  0  0  0  0  0  0  0  0  0  0
   -1.5197   18.5782   15.6125 H   0  0  0  0  0  0  0  0  0  0  0  0
    0.4437   20.2471   14.7857 H   0  0  0  0  0  0  0  0  0  0  0  0
    2.6085   21.3828   15.0638 H   0  0  0  0  0  0  0  0  0  0  0  0
   -1.4275   23.1287   17.3848 H   0  0  0  0  0  0  0  0  0  0  0  0
    3.9673   23.2490   16.0813 H   0  0  0  0  0  0  0  0  0  0  0  0
    4.0901   25.2551   17.5097 H   0  0  0  0  0  0  0  0  0  0  0  0
    2.0580   26.0978   18.6569 H   0  0  0  0  0  0  0  0  0  0  0  0
   -0.0957   24.9414   18.3677 H   0  0  0  0  0  0  0  0  0  0  0  0
   -2.8682   15.4378   14.2231 H   0  0  0  0  0  0  0  0  0  0  0  0
  1 10  1  0  0  0  0
  1  3  2  0  0  0  0
  1  2  1  0  0  0  0
  2  6  2  0  0  0  0
  2 37  1  0  0  0  0
  3  4  1  0  0  0  0
  3 38  1  0  0  0  0
  4  5  2  0  0  0  0
  4 39  1  0  0  0  0
  5  6  1  0  0  0  0
  5 40  1  0  0  0  0
  6  7  1  0  0  0  0
  7  9  2  0  0  0  0
  7  8  1  0  0  0  0
  8 41  1  0  0  0  0
  8 42  1  0  0  0  0
  9 43  1  0  0  0  0
  9 64  1  0  0  0  0
 10 11  1  0  0  0  0
 10 44  1  0  0  0  0
 10 45  1  0  0  0  0
 11 23  1  0  0  0  0
 11 12  1  0  0  0  0
 11 46  1  1  0  0  0
 12 14  1  0  0  0  0
 12 13  2  0  0  0  0
 14 18  1  0  0  0  0
 14 15  1  0  0  0  0
 15 20  1  0  0  0  0
 15 16  1  0  0  0  0
 15 47  1  6  0  0  0
 16 19  1  0  0  0  0
 16 48  1  0  0  0  0
 16 49  1  0  0  0  0
 17 19  1  0  0  0  0
 17 18  1  0  0  0  0
 17 50  1  0  0  0  0
 17 51  1  0  0  0  0
 18 52  1  0  0  0  0
 18 53  1  0  0  0  0
 19 54  1  0  0  0  0
 19 55  1  0  0  0  0
 20 22  2  0  0  0  0
 20 21  1  0  0  0  0
 23 24  1  0  0  0  0
 23 56  1  0  0  0  0
 24 27  1  0  0  0  0
 24 26  2  0  0  0  0
 24 25  2  0  0  0  0
 27 32  2  0  0  0  0
 27 28  1  0  0  0  0
 28 29  2  0  0  0  0
 28 57  1  0  0  0  0
 29 31  1  0  0  0  0
 29 58  1  0  0  0  0
 30 31  2  0  0  0  0
 30 36  1  0  0  0  0
 30 32  1  0  0  0  0
 31 33  1  0  0  0  0
 32 59  1  0  0  0  0
 33 34  2  0  0  0  0
 33 60  1  0  0  0  0
 34 35  1  0  0  0  0
 34 61  1  0  0  0  0
 35 36  2  0  0  0  0
 35 62  1  0  0  0  0
 36 63  1  0  0  0  0
M  END
$$$$
