FD2
 OpenBabel04041915133D

 68 71  0  0  1  0  0  0  0  0999 V2000
   -3.0403    5.6080   20.2424 C   0  0  0  0  0  0  0  0  0  0  0  0
   -3.6718    6.8636   20.1748 C   0  0  0  0  0  0  0  0  0  0  0  0
   -1.6829    5.5196   19.8916 C   0  0  0  0  0  0  0  0  0  0  0  0
   -0.9745    6.6505   19.4782 C   0  0  0  0  0  0  0  0  0  0  0  0
   -1.6225    7.8893   19.4094 C   0  0  0  0  0  0  0  0  0  0  0  0
   -2.9808    8.0217   19.7559 C   0  0  0  0  0  0  0  0  0  0  0  0
   -3.6581    9.3415   19.6708 C   0  0  0  0  0  0  0  0  0  0  0  0
   -2.9825   10.4078   19.2870 N   0  0  0  0  0  0  0  0  0  0  0  0
   -4.9347    9.4648   19.9659 N   0  0  0  0  0  0  0  0  0  0  0  0
   -3.7939    4.3722   20.7233 C   0  0  0  0  0  0  0  0  0  0  0  0
   -3.8024    4.1389   22.2506 C   0  0  1  0  0  0  0  0  0  0  0  0
   -2.4912    4.5578   22.9159 C   0  0  0  0  0  0  0  0  0  0  0  0
   -2.3996    5.7038   23.3579 O   0  0  0  0  0  0  0  0  0  0  0  0
   -1.4314    3.6784   22.9896 N   0  0  0  0  0  0  0  0  0  0  0  0
   -1.4907    2.3275   22.4591 C   0  0  0  0  0  0  0  0  0  0  0  0
   -1.0163    1.3262   23.4844 C   0  0  0  0  0  0  0  0  0  0  0  0
    0.3318    3.1606   24.6161 C   0  0  0  0  0  0  0  0  0  0  0  0
   -0.1661    4.1491   23.5820 C   0  0  0  0  0  0  0  0  0  0  0  0
    0.3576    1.7416   24.0262 C   0  0  1  0  0  0  0  0  0  0  0  0
    0.8035    0.7684   25.0782 C   0  0  0  0  0  0  0  0  0  0  0  0
    0.1829   -0.1838   25.4487 O   0  0  0  0  0  0  0  0  0  0  0  0
    2.0216    1.1842   25.5674 O   0  0  0  0  0  0  0  0  0  0  0  0
    2.1761    0.9209   26.9477 C   0  0  0  0  0  0  0  0  0  0  0  0
   -4.9191    4.8985   22.8673 N   0  0  0  0  0  0  0  0  0  0  0  0
   -5.7739    4.2763   24.1778 S   0  0  0  0  0  0  0  0  0  0  0  0
   -6.7893    5.2221   24.5423 O   0  0  0  0  0  0  0  0  0  0  0  0
   -6.1035    2.8889   23.8821 O   0  0  0  0  0  0  0  0  0  0  0  0
   -4.5525    4.2938   25.4447 C   0  0  0  0  0  0  0  0  0  0  0  0
   -4.2746    5.5295   26.0348 C   0  0  0  0  0  0  0  0  0  0  0  0
   -3.2976    5.6093   27.0234 C   0  0  0  0  0  0  0  0  0  0  0  0
   -2.8960    3.2013   26.8370 C   0  0  0  0  0  0  0  0  0  0  0  0
   -2.5966    4.4570   27.4421 C   0  0  0  0  0  0  0  0  0  0  0  0
   -3.8816    3.1313   25.8341 C   0  0  0  0  0  0  0  0  0  0  0  0
   -1.6076    4.5124   28.4520 C   0  0  0  0  0  0  0  0  0  0  0  0
   -0.9191    3.3532   28.8626 C   0  0  0  0  0  0  0  0  0  0  0  0
   -1.2147    2.1241   28.2675 C   0  0  0  0  0  0  0  0  0  0  0  0
   -2.1982    2.0521   27.2634 C   0  0  0  0  0  0  0  0  0  0  0  0
   -4.7196    6.9223   20.4504 H   0  0  0  0  0  0  0  0  0  0  0  0
   -1.1664    4.5600   19.9421 H   0  0  0  0  0  0  0  0  0  0  0  0
    0.0806    6.5665   19.2092 H   0  0  0  0  0  0  0  0  0  0  0  0
   -1.0429    8.7460   19.0771 H   0  0  0  0  0  0  0  0  0  0  0  0
   -3.4117   11.3189   19.2179 H   0  0  0  0  0  0  0  0  0  0  0  0
   -2.0054   10.3311   19.0542 H   0  0  0  0  0  0  0  0  0  0  0  0
   -5.4180   10.3561   19.9072 H   0  0  0  0  0  0  0  0  0  0  0  0
   -3.3582    3.4877   20.2317 H   0  0  0  0  0  0  0  0  0  0  0  0
   -4.8373    4.4459   20.3704 H   0  0  0  0  0  0  0  0  0  0  0  0
   -4.0088    3.0909   22.4476 H   0  0  0  0  0  0  0  0  0  0  0  0
   -0.8800    2.2915   21.5515 H   0  0  0  0  0  0  0  0  0  0  0  0
   -2.5100    2.1001   22.1672 H   0  0  0  0  0  0  0  0  0  0  0  0
   -0.9627    0.3300   23.0247 H   0  0  0  0  0  0  0  0  0  0  0  0
   -1.7417    1.2719   24.3096 H   0  0  0  0  0  0  0  0  0  0  0  0
    1.3355    3.4507   24.9608 H   0  0  0  0  0  0  0  0  0  0  0  0
   -0.3285    3.1830   25.4928 H   0  0  0  0  0  0  0  0  0  0  0  0
   -0.3092    5.1409   24.0377 H   0  0  0  0  0  0  0  0  0  0  0  0
    0.5706    4.2669   22.7726 H   0  0  0  0  0  0  0  0  0  0  0  0
    1.1008    1.6806   23.2197 H   0  0  0  0  0  0  0  0  0  0  0  0
    3.1736    1.2550   27.2481 H   0  0  0  0  0  0  0  0  0  0  0  0
    2.0637   -0.1399   27.1651 H   0  0  0  0  0  0  0  0  0  0  0  0
    1.4358    1.5007   27.5098 H   0  0  0  0  0  0  0  0  0  0  0  0
   -5.0669    5.8592   22.5847 H   0  0  0  0  0  0  0  0  0  0  0  0
   -4.8163    6.4157   25.7070 H   0  0  0  0  0  0  0  0  0  0  0  0
   -3.0896    6.5809   27.4702 H   0  0  0  0  0  0  0  0  0  0  0  0
   -4.1284    2.1821   25.3582 H   0  0  0  0  0  0  0  0  0  0  0  0
   -1.3755    5.4677   28.9253 H   0  0  0  0  0  0  0  0  0  0  0  0
   -0.1596    3.4134   29.6477 H   0  0  0  0  0  0  0  0  0  0  0  0
   -0.6882    1.2169   28.5730 H   0  0  0  0  0  0  0  0  0  0  0  0
   -2.4165    1.0823   26.8100 H   0  0  0  0  0  0  0  0  0  0  0  0
   -5.4794    8.6701   20.2606 H   0  0  0  0  0  0  0  0  0  0  0  0
  1 10  1  0  0  0  0
  1  3  2  0  0  0  0
  1  2  1  0  0  0  0
  2  6  2  0  0  0  0
  2 38  1  0  0  0  0
  3  4  1  0  0  0  0
  3 39  1  0  0  0  0
  4  5  2  0  0  0  0
  4 40  1  0  0  0  0
  5  6  1  0  0  0  0
  5 41  1  0  0  0  0
  6  7  1  0  0  0  0
  7  9  2  0  0  0  0
  7  8  1  0  0  0  0
  8 42  1  0  0  0  0
  8 43  1  0  0  0  0
  9 44  1  0  0  0  0
  9 68  1  0  0  0  0
 10 11  1  0  0  0  0
 10 45  1  0  0  0  0
 10 46  1  0  0  0  0
 11 24  1  0  0  0  0
 11 12  1  0  0  0  0
 11 47  1  1  0  0  0
 12 14  1  0  0  0  0
 12 13  2  0  0  0  0
 14 18  1  0  0  0  0
 14 15  1  0  0  0  0
 15 16  1  0  0  0  0
 15 48  1  0  0  0  0
 15 49  1  0  0  0  0
 16 19  1  0  0  0  0
 16 50  1  0  0  0  0
 16 51  1  0  0  0  0
 17 19  1  0  0  0  0
 17 18  1  0  0  0  0
 17 52  1  0  0  0  0
 17 53  1  0  0  0  0
 18 54  1  0  0  0  0
 18 55  1  0  0  0  0
 19 20  1  0  0  0  0
 19 56  1  6  0  0  0
 20 22  1  0  0  0  0
 20 21  2  0  0  0  0
 22 23  1  0  0  0  0
 23 57  1  0  0  0  0
 23 58  1  0  0  0  0
 23 59  1  0  0  0  0
 24 25  1  0  0  0  0
 24 60  1  0  0  0  0
 25 28  1  0  0  0  0
 25 27  2  0  0  0  0
 25 26  2  0  0  0  0
 28 33  2  0  0  0  0
 28 29  1  0  0  0  0
 29 30  2  0  0  0  0
 29 61  1  0  0  0  0
 30 32  1  0  0  0  0
 30 62  1  0  0  0  0
 31 32  2  0  0  0  0
 31 37  1  0  0  0  0
 31 33  1  0  0  0  0
 32 34  1  0  0  0  0
 33 63  1  0  0  0  0
 34 35  2  0  0  0  0
 34 64  1  0  0  0  0
 35 36  1  0  0  0  0
 35 65  1  0  0  0  0
 36 37  2  0  0  0  0
 36 66  1  0  0  0  0
 37 67  1  0  0  0  0
M  END
$$$$
