FD3
 OpenBabel04041915143D

 62 65  0  0  1  0  0  0  0  0999 V2000
   -3.2487    5.7405   20.1988 C   0  0  0  0  0  0  0  0  0  0  0  0
   -3.8041    7.0211   20.1025 C   0  0  0  0  0  0  0  0  0  0  0  0
   -1.9067    5.5674   19.8253 C   0  0  0  0  0  0  0  0  0  0  0  0
   -1.1381    6.6455   19.3747 C   0  0  0  0  0  0  0  0  0  0  0  0
   -1.7155    7.9144   19.2812 C   0  0  0  0  0  0  0  0  0  0  0  0
   -3.0580    8.1251   19.6394 C   0  0  0  0  0  0  0  0  0  0  0  0
   -3.6857    9.4587   19.5481 C   0  0  0  0  0  0  0  0  0  0  0  0
   -2.9842   10.5011   19.1381 N   0  0  0  0  0  0  0  0  0  0  0  0
   -4.9461    9.6217   19.8806 N   0  0  0  0  0  0  0  0  0  0  0  0
   -4.0783    4.5770   20.7182 C   0  0  0  0  0  0  0  0  0  0  0  0
   -4.0660    4.3630   22.2427 C   0  0  1  0  0  0  0  0  0  0  0  0
   -2.7549    4.8052   22.8784 C   0  0  0  0  0  0  0  0  0  0  0  0
   -2.6729    5.9200   23.3744 O   0  0  0  0  0  0  0  0  0  0  0  0
   -1.6595    3.9541   22.8462 N   0  0  0  0  0  0  0  0  0  0  0  0
   -1.5913    2.7312   22.0519 C   0  0  0  0  0  0  0  0  0  0  0  0
   -1.1473    1.5675   22.9117 C   0  0  0  0  0  0  0  0  0  0  0  0
    0.1294    3.3327   24.3839 C   0  0  0  0  0  0  0  0  0  0  0  0
   -0.3920    4.4043   23.4388 C   0  0  0  0  0  0  0  0  0  0  0  0
   -0.0097    1.9400   23.8084 N   0  3  0  0  0  0  0  0  0  0  0  0
   -5.2009    5.0679   22.8644 N   0  0  0  0  0  0  0  0  0  0  0  0
   -6.0201    4.3803   24.1749 S   0  0  0  0  0  0  0  0  0  0  0  0
   -7.0615    5.2595   24.5832 O   0  0  0  0  0  0  0  0  0  0  0  0
   -6.2567    2.9700   23.8464 O   0  0  0  0  0  0  0  0  0  0  0  0
   -4.7461    4.4155   25.3915 C   0  0  0  0  0  0  0  0  0  0  0  0
   -4.4614    5.6580   25.9822 C   0  0  0  0  0  0  0  0  0  0  0  0
   -3.4370    5.7323   26.9278 C   0  0  0  0  0  0  0  0  0  0  0  0
   -3.0171    3.3242   26.6793 C   0  0  0  0  0  0  0  0  0  0  0  0
   -2.7053    4.5797   27.2992 C   0  0  0  0  0  0  0  0  0  0  0  0
   -4.0371    3.2571   25.7250 C   0  0  0  0  0  0  0  0  0  0  0  0
   -1.6715    4.6128   28.2624 C   0  0  0  0  0  0  0  0  0  0  0  0
   -0.9568    3.4455   28.6099 C   0  0  0  0  0  0  0  0  0  0  0  0
   -1.2699    2.2254   27.9942 C   0  0  0  0  0  0  0  0  0  0  0  0
   -2.2924    2.1685   27.0347 C   0  0  0  0  0  0  0  0  0  0  0  0
   -4.8429    7.1462   20.3878 H   0  0  0  0  0  0  0  0  0  0  0  0
   -1.4486    4.5852   19.8747 H   0  0  0  0  0  0  0  0  0  0  0  0
   -0.0937    6.4967   19.0924 H   0  0  0  0  0  0  0  0  0  0  0  0
   -1.0994    8.7342   18.9227 H   0  0  0  0  0  0  0  0  0  0  0  0
   -3.3924   11.4192   19.0661 H   0  0  0  0  0  0  0  0  0  0  0  0
   -2.0147   10.3929   18.8881 H   0  0  0  0  0  0  0  0  0  0  0  0
   -5.4030   10.5216   19.8401 H   0  0  0  0  0  0  0  0  0  0  0  0
   -3.7219    3.6564   20.2360 H   0  0  0  0  0  0  0  0  0  0  0  0
   -5.1223    4.7104   20.3954 H   0  0  0  0  0  0  0  0  0  0  0  0
   -4.2128    3.2979   22.4385 H   0  0  0  0  0  0  0  0  0  0  0  0
   -0.8896    2.9009   21.2261 H   0  0  0  0  0  0  0  0  0  0  0  0
   -2.5580    2.5003   21.6142 H   0  0  0  0  0  0  0  0  0  0  0  0
   -0.7947    0.7334   22.2938 H   0  0  0  0  0  0  0  0  0  0  0  0
   -1.9627    1.2320   23.5565 H   0  0  0  0  0  0  0  0  0  0  0  0
    1.1939    3.4707   24.5939 H   0  0  0  0  0  0  0  0  0  0  0  0
   -0.4347    3.3472   25.3127 H   0  0  0  0  0  0  0  0  0  0  0  0
   -0.5134    5.3479   23.9886 H   0  0  0  0  0  0  0  0  0  0  0  0
    0.3257    4.5933   22.6257 H   0  0  0  0  0  0  0  0  0  0  0  0
   -0.0518    1.2961   24.6068 H   0  0  0  0  0  0  0  0  0  0  0  0
   -5.4092    6.0269   22.6098 H   0  0  0  0  0  0  0  0  0  0  0  0
   -5.0308    6.5298   25.6840 H   0  0  0  0  0  0  0  0  0  0  0  0
   -3.2210    6.7030   27.3821 H   0  0  0  0  0  0  0  0  0  0  0  0
   -4.2966    2.3137   25.2434 H   0  0  0  0  0  0  0  0  0  0  0  0
   -1.4217    5.5572   28.7568 H   0  0  0  0  0  0  0  0  0  0  0  0
   -0.1658    3.4866   29.3604 H   0  0  0  0  0  0  0  0  0  0  0  0
   -0.7261    1.3199   28.2697 H   0  0  0  0  0  0  0  0  0  0  0  0
   -2.5285    1.2100   26.5688 H   0  0  0  0  0  0  0  0  0  0  0  0
   -5.5042    8.8442   20.1933 H   0  0  0  0  0  0  0  0  0  0  0  0
    0.8501    1.7415   23.2883 H   0  0  0  0  0  0  0  0  0  0  0  0
  1 10  1  0  0  0  0
  1  3  2  0  0  0  0
  1  2  1  0  0  0  0
  2  6  2  0  0  0  0
  2 34  1  0  0  0  0
  3  4  1  0  0  0  0
  3 35  1  0  0  0  0
  4  5  2  0  0  0  0
  4 36  1  0  0  0  0
  5  6  1  0  0  0  0
  5 37  1  0  0  0  0
  6  7  1  0  0  0  0
  7  9  2  0  0  0  0
  7  8  1  0  0  0  0
  8 38  1  0  0  0  0
  8 39  1  0  0  0  0
  9 40  1  0  0  0  0
  9 61  1  0  0  0  0
 10 11  1  0  0  0  0
 10 41  1  0  0  0  0
 10 42  1  0  0  0  0
 11 20  1  0  0  0  0
 11 12  1  0  0  0  0
 11 43  1  1  0  0  0
 12 14  1  0  0  0  0
 12 13  2  0  0  0  0
 14 18  1  0  0  0  0
 14 15  1  0  0  0  0
 15 16  1  0  0  0  0
 15 44  1  0  0  0  0
 15 45  1  0  0  0  0
 16 19  1  0  0  0  0
 16 46  1  0  0  0  0
 16 47  1  0  0  0  0
 17 19  1  0  0  0  0
 17 18  1  0  0  0  0
 17 48  1  0  0  0  0
 17 49  1  0  0  0  0
 18 50  1  0  0  0  0
 18 51  1  0  0  0  0
 19 52  1  0  0  0  0
 19 62  1  0  0  0  0
 20 21  1  0  0  0  0
 20 53  1  0  0  0  0
 21 24  1  0  0  0  0
 21 23  2  0  0  0  0
 21 22  2  0  0  0  0
 24 29  2  0  0  0  0
 24 25  1  0  0  0  0
 25 26  2  0  0  0  0
 25 54  1  0  0  0  0
 26 28  1  0  0  0  0
 26 55  1  0  0  0  0
 27 28  2  0  0  0  0
 27 33  1  0  0  0  0
 27 29  1  0  0  0  0
 28 30  1  0  0  0  0
 29 56  1  0  0  0  0
 30 31  2  0  0  0  0
 30 57  1  0  0  0  0
 31 32  1  0  0  0  0
 31 58  1  0  0  0  0
 32 33  2  0  0  0  0
 32 59  1  0  0  0  0
 33 60  1  0  0  0  0
M  CHG  1  19   1
M  END
$$$$
