FD4
 OpenBabel04041915143D

 66 69  0  0  1  0  0  0  0  0999 V2000
   -3.1844    5.6273   20.2139 C   0  0  0  0  0  0  0  0  0  0  0  0
   -3.7535    6.9187   20.1885 C   0  0  0  0  0  0  0  0  0  0  0  0
   -1.8530    5.4682   19.8117 C   0  0  0  0  0  0  0  0  0  0  0  0
   -1.1020    6.5596   19.4088 C   0  0  0  0  0  0  0  0  0  0  0  0
   -1.6789    7.8423   19.3817 C   0  0  0  0  0  0  0  0  0  0  0  0
   -3.0170    8.0486   19.7716 C   0  0  0  0  0  0  0  0  0  0  0  0
   -3.6362    9.4045   19.7447 C   0  0  0  0  0  0  0  0  0  0  0  0
   -2.9810   10.4407   19.2709 N   0  0  0  0  0  0  0  0  0  0  0  0
   -4.8622    9.5965   20.1861 N   0  0  0  0  0  0  0  0  0  0  0  0
   -3.9820    4.4393   20.7219 C   0  0  0  0  0  0  0  0  0  0  0  0
   -3.9672    4.2109   22.2544 C   0  0  1  0  0  0  0  0  0  0  0  0
   -2.6549    4.6959   22.8837 C   0  0  0  0  0  0  0  0  0  0  0  0
   -2.5753    5.8610   23.2913 O   0  0  0  0  0  0  0  0  0  0  0  0
   -1.5790    3.8285   22.9254 N   0  0  0  0  0  0  0  0  0  0  0  0
   -1.5435    2.4456   22.4450 C   0  0  0  0  0  0  0  0  0  0  0  0
   -1.1236    1.4786   23.5547 C   0  0  0  0  0  0  0  0  0  0  0  0
    0.1588    3.3534   24.6330 C   0  0  0  0  0  0  0  0  0  0  0  0
   -0.3085    4.2785   23.5023 C   0  0  0  0  0  0  0  0  0  0  0  0
    0.0820    1.9274   24.2627 N   0  0  0  0  0  0  0  0  0  0  0  0
   -5.1246    4.8999   22.8587 N   0  0  0  0  0  0  0  0  0  0  0  0
   -5.8682    4.2594   24.2187 S   0  0  0  0  0  0  0  0  0  0  0  0
   -6.9024    5.2048   24.5733 O   0  0  0  0  0  0  0  0  0  0  0  0
   -6.1618    2.8759   23.9179 O   0  0  0  0  0  0  0  0  0  0  0  0
   -4.6306    4.3041   25.4871 C   0  0  0  0  0  0  0  0  0  0  0  0
   -4.3109    5.5299   26.0726 C   0  0  0  0  0  0  0  0  0  0  0  0
   -3.3473    5.5836   27.0788 C   0  0  0  0  0  0  0  0  0  0  0  0
   -3.0539    3.1699   26.9436 C   0  0  0  0  0  0  0  0  0  0  0  0
   -2.7061    4.4177   27.5186 C   0  0  0  0  0  0  0  0  0  0  0  0
   -4.0283    3.1230   25.9325 C   0  0  0  0  0  0  0  0  0  0  0  0
   -1.7206    4.4721   28.5144 C   0  0  0  0  0  0  0  0  0  0  0  0
   -1.0693    3.3106   28.9317 C   0  0  0  0  0  0  0  0  0  0  0  0
   -1.4142    2.0838   28.3756 C   0  0  0  0  0  0  0  0  0  0  0  0
   -2.4037    2.0095   27.3946 C   0  0  0  0  0  0  0  0  0  0  0  0
    0.9967    1.0528   24.8334 C   0  0  0  0  0  0  0  0  0  0  0  0
    1.8865    1.4269   25.5953 O   0  0  0  0  0  0  0  0  0  0  0  0
    0.8966   -0.3978   24.4298 C   0  0  0  0  0  0  0  0  0  0  0  0
   -4.7811    6.9982   20.5066 H   0  0  0  0  0  0  0  0  0  0  0  0
   -1.3826    4.4888   19.8386 H   0  0  0  0  0  0  0  0  0  0  0  0
   -0.0655    6.4315   19.1128 H   0  0  0  0  0  0  0  0  0  0  0  0
   -1.0328    8.6498   19.0590 H   0  0  0  0  0  0  0  0  0  0  0  0
   -3.3832   11.3668   19.2485 H   0  0  0  0  0  0  0  0  0  0  0  0
   -2.0388   10.3595   18.9096 H   0  0  0  0  0  0  0  0  0  0  0  0
   -5.3067   10.5036   20.1707 H   0  0  0  0  0  0  0  0  0  0  0  0
   -3.6024    3.5434   20.2225 H   0  0  0  0  0  0  0  0  0  0  0  0
   -5.0192    4.5485   20.3785 H   0  0  0  0  0  0  0  0  0  0  0  0
   -4.1133    3.1447   22.4425 H   0  0  0  0  0  0  0  0  0  0  0  0
   -0.8057    2.4144   21.6342 H   0  0  0  0  0  0  0  0  0  0  0  0
   -2.4909    2.1191   22.0186 H   0  0  0  0  0  0  0  0  0  0  0  0
   -0.9590    0.4990   23.1010 H   0  0  0  0  0  0  0  0  0  0  0  0
   -1.9278    1.3623   24.2905 H   0  0  0  0  0  0  0  0  0  0  0  0
    1.1909    3.6128   24.8954 H   0  0  0  0  0  0  0  0  0  0  0  0
   -0.4499    3.5154   25.5276 H   0  0  0  0  0  0  0  0  0  0  0  0
   -0.3705    5.3098   23.8621 H   0  0  0  0  0  0  0  0  0  0  0  0
    0.4263    4.2621   22.6877 H   0  0  0  0  0  0  0  0  0  0  0  0
   -5.1975    5.9081   22.7693 H   0  0  0  0  0  0  0  0  0  0  0  0
   -4.7990    6.4451   25.7516 H   0  0  0  0  0  0  0  0  0  0  0  0
   -3.0919    6.5472   27.5163 H   0  0  0  0  0  0  0  0  0  0  0  0
   -4.3125    2.1654   25.4997 H   0  0  0  0  0  0  0  0  0  0  0  0
   -1.4496    5.4205   28.9735 H   0  0  0  0  0  0  0  0  0  0  0  0
   -0.2928    3.3686   29.6908 H   0  0  0  0  0  0  0  0  0  0  0  0
   -0.9101    1.1794   28.7105 H   0  0  0  0  0  0  0  0  0  0  0  0
   -2.6543    1.0366   26.9775 H   0  0  0  0  0  0  0  0  0  0  0  0
    1.7241   -0.9540   24.8779 H   0  0  0  0  0  0  0  0  0  0  0  0
    0.9844   -0.4899   23.3428 H   0  0  0  0  0  0  0  0  0  0  0  0
   -0.0439   -0.8334   24.7775 H   0  0  0  0  0  0  0  0  0  0  0  0
   -5.4202    8.8447   20.5670 H   0  0  0  0  0  0  0  0  0  0  0  0
  1 10  1  0  0  0  0
  1  3  2  0  0  0  0
  1  2  1  0  0  0  0
  2  6  2  0  0  0  0
  2 37  1  0  0  0  0
  3  4  1  0  0  0  0
  3 38  1  0  0  0  0
  4  5  2  0  0  0  0
  4 39  1  0  0  0  0
  5  6  1  0  0  0  0
  5 40  1  0  0  0  0
  6  7  1  0  0  0  0
  7  9  2  0  0  0  0
  7  8  1  0  0  0  0
  8 41  1  0  0  0  0
  8 42  1  0  0  0  0
  9 43  1  0  0  0  0
  9 66  1  0  0  0  0
 10 11  1  0  0  0  0
 10 44  1  0  0  0  0
 10 45  1  0  0  0  0
 11 20  1  0  0  0  0
 11 12  1  0  0  0  0
 11 46  1  1  0  0  0
 12 14  1  0  0  0  0
 12 13  2  0  0  0  0
 14 18  1  0  0  0  0
 14 15  1  0  0  0  0
 15 16  1  0  0  0  0
 15 47  1  0  0  0  0
 15 48  1  0  0  0  0
 16 19  1  0  0  0  0
 16 49  1  0  0  0  0
 16 50  1  0  0  0  0
 17 19  1  0  0  0  0
 17 18  1  0  0  0  0
 17 51  1  0  0  0  0
 17 52  1  0  0  0  0
 18 53  1  0  0  0  0
 18 54  1  0  0  0  0
 19 34  1  0  0  0  0
 20 21  1  0  0  0  0
 20 55  1  0  0  0  0
 21 24  1  0  0  0  0
 21 23  2  0  0  0  0
 21 22  2  0  0  0  0
 24 29  2  0  0  0  0
 24 25  1  0  0  0  0
 25 26  2  0  0  0  0
 25 56  1  0  0  0  0
 26 28  1  0  0  0  0
 26 57  1  0  0  0  0
 27 28  2  0  0  0  0
 27 33  1  0  0  0  0
 27 29  1  0  0  0  0
 28 30  1  0  0  0  0
 29 58  1  0  0  0  0
 30 31  2  0  0  0  0
 30 59  1  0  0  0  0
 31 32  1  0  0  0  0
 31 60  1  0  0  0  0
 32 33  2  0  0  0  0
 32 61  1  0  0  0  0
 33 62  1  0  0  0  0
 34 36  1  0  0  0  0
 34 35  2  0  0  0  0
 36 63  1  0  0  0  0
 36 64  1  0  0  0  0
 36 65  1  0  0  0  0
M  END
$$$$
