FEP
 OpenBabel04041915183D

 42 43  0  0  0  0  0  0  0  0999 V2000
   32.5948   10.4049   90.2174 C   0  0  0  0  0  0  0  0  0  0  0  0
   33.9047   10.1339   90.0911 C   0  0  0  0  0  0  0  0  0  0  0  0
   34.6461    9.8721   91.2813 C   0  0  0  0  0  0  0  0  0  0  0  0
   34.6310   10.8106   92.2593 C   0  0  0  0  0  0  0  0  0  0  0  0
   28.3649   10.7148   86.6037 C   0  0  0  0  0  0  0  0  0  0  0  0
   31.7271   10.5992   89.1053 C   0  0  0  0  0  0  0  0  0  0  0  0
   31.4735    9.5203   88.2569 C   0  0  0  0  0  0  0  0  0  0  0  0
   30.3782    9.5819   87.4409 C   0  0  0  0  0  0  0  0  0  0  0  0
   29.5983   10.7421   87.4382 C   0  0  0  0  0  0  0  0  0  0  0  0
   29.8915   11.8421   88.2571 C   0  0  0  0  0  0  0  0  0  0  0  0
   30.9896   11.7845   89.0803 C   0  0  0  0  0  0  0  0  0  0  0  0
   37.6809   10.6280   96.9734 C   0  0  0  0  0  0  0  0  0  0  0  0
   35.4015   10.6671   93.4582 C   0  0  0  0  0  0  0  0  0  0  0  0
   34.7665   10.9896   94.6689 C   0  0  0  0  0  0  0  0  0  0  0  0
   35.5052   11.0223   95.8217 C   0  0  0  0  0  0  0  0  0  0  0  0
   36.8645   10.7506   95.7376 C   0  0  0  0  0  0  0  0  0  0  0  0
   37.5076   10.4342   94.5209 C   0  0  0  0  0  0  0  0  0  0  0  0
   36.7673   10.3778   93.3675 C   0  0  0  0  0  0  0  0  0  0  0  0
   28.3894   11.4145   84.8059 P   0  0  0  0  0  0  0  0  0  0  0  0
   28.7868   12.8814   84.9346 O   0  0  0  0  0  0  0  0  0  0  0  0
   26.9447   11.2228   84.2816 O   0  0  0  0  0  0  0  0  0  0  0  0
   29.4313   10.5672   84.0569 O   0  0  0  0  0  0  0  0  0  0  0  0
   37.2053   11.3800   98.6999 P   0  0  0  0  0  0  0  0  0  0  0  0
   37.1937   12.9068   98.5309 O   0  0  0  0  0  0  0  0  0  0  0  0
   38.3053   10.8838   99.6504 O   0  0  0  0  0  0  0  0  0  0  0  0
   35.8145   10.8204   99.0372 O   0  0  0  0  0  0  0  0  0  0  0  0
   27.9346    9.4282   86.3993 F   0  0  0  0  0  0  0  0  0  0  0  0
   27.3386   11.3659   87.2303 F   0  0  0  0  0  0  0  0  0  0  0  0
   37.8160    9.2941   97.2748 F   0  0  0  0  0  0  0  0  0  0  0  0
   38.9445   11.1131   96.7556 F   0  0  0  0  0  0  0  0  0  0  0  0
   32.0956   10.4125   91.1844 H   0  0  0  0  0  0  0  0  0  0  0  0
   34.3980   10.0576   89.1481 H   0  0  0  0  0  0  0  0  0  0  0  0
   35.1852    8.9423   91.3833 H   0  0  0  0  0  0  0  0  0  0  0  0
   34.1034   11.7473   92.1544 H   0  0  0  0  0  0  0  0  0  0  0  0
   32.0608    8.6112   88.2812 H   0  0  0  0  0  0  0  0  0  0  0  0
   30.0746    8.7331   86.8345 H   0  0  0  0  0  0  0  0  0  0  0  0
   29.2362   12.7093   88.2666 H   0  0  0  0  0  0  0  0  0  0  0  0
   31.2445   12.6198   89.7250 H   0  0  0  0  0  0  0  0  0  0  0  0
   33.7013   11.2058   94.7276 H   0  0  0  0  0  0  0  0  0  0  0  0
   35.0491   11.2503   96.7830 H   0  0  0  0  0  0  0  0  0  0  0  0
   38.5814   10.2375   94.4949 H   0  0  0  0  0  0  0  0  0  0  0  0
   37.2453   10.1459   92.4237 H   0  0  0  0  0  0  0  0  0  0  0  0
  1  6  1  0  0  0  0
  1  2  2  0  0  0  0
  1 31  1  0  0  0  0
  2  3  1  0  0  0  0
  2 32  1  0  0  0  0
  3  4  2  0  0  0  0
  3 33  1  0  0  0  0
  4 13  1  0  0  0  0
  4 34  1  0  0  0  0
  5  9  1  0  0  0  0
  5 19  1  0  0  0  0
  5 27  1  0  0  0  0
  5 28  1  0  0  0  0
  6 11  2  0  0  0  0
  6  7  1  0  0  0  0
  7  8  2  0  0  0  0
  7 35  1  0  0  0  0
  8  9  1  0  0  0  0
  8 36  1  0  0  0  0
  9 10  2  0  0  0  0
 10 11  1  0  0  0  0
 10 37  1  0  0  0  0
 11 38  1  0  0  0  0
 12 16  1  0  0  0  0
 12 23  1  0  0  0  0
 12 29  1  0  0  0  0
 12 30  1  0  0  0  0
 13 18  2  0  0  0  0
 13 14  1  0  0  0  0
 14 15  2  0  0  0  0
 14 39  1  0  0  0  0
 15 16  1  0  0  0  0
 15 40  1  0  0  0  0
 16 17  2  0  0  0  0
 17 18  1  0  0  0  0
 17 41  1  0  0  0  0
 18 42  1  0  0  0  0
 19 22  2  0  0  0  0
 19 21  1  0  0  0  0
 19 20  1  0  0  0  0
 23 26  2  0  0  0  0
 23 25  1  0  0  0  0
 23 24  1  0  0  0  0
M  END
$$$$
