FFB
 OpenBabel04041914463D

 34 35  0  0  0  0  0  0  0  0999 V2000
   -3.4443    3.5537   14.8661 C   0  0  0  0  0  0  0  0  0  0  0  0
   -3.9208    2.4473   15.6234 C   0  0  0  0  0  0  0  0  0  0  0  0
   -5.2898    2.3178   15.9094 C   0  0  0  0  0  0  0  0  0  0  0  0
   -6.1796    3.2869   15.4514 C   0  0  0  0  0  0  0  0  0  0  0  0
   -5.7037    4.3742   14.7179 C   0  0  0  0  0  0  0  0  0  0  0  0
   -4.3374    4.5384   14.4118 C   0  0  0  0  0  0  0  0  0  0  0  0
   -4.0281    5.7859   13.6175 C   0  0  0  0  0  0  0  0  0  0  0  0
   -4.9563    6.5375   13.3385 O   0  0  0  0  0  0  0  0  0  0  0  0
   -2.7450    6.0887   13.1802 N   0  0  0  0  0  0  0  0  0  0  0  0
   -2.5572    7.2425   12.2940 C   0  0  0  0  0  0  0  0  0  0  0  0
   -5.9334    0.9958   16.9134 S   0  0  0  0  0  0  0  0  0  0  0  0
   -5.5073   -0.3997   16.1045 N   0  0  0  0  0  0  0  0  0  0  0  0
   -7.3753    1.0334   16.8598 O   0  0  0  0  0  0  0  0  0  0  0  0
   -5.2160    1.0074   18.1649 O   0  0  0  0  0  0  0  0  0  0  0  0
   -2.1996    8.5683   12.9349 C   0  0  0  0  0  0  0  0  0  0  0  0
   -2.2349    9.7272   12.1351 C   0  0  0  0  0  0  0  0  0  0  0  0
   -1.9134   10.9866   12.6408 C   0  0  0  0  0  0  0  0  0  0  0  0
   -1.5441   11.1186   13.9637 C   0  0  0  0  0  0  0  0  0  0  0  0
   -1.4803    9.9891   14.7748 C   0  0  0  0  0  0  0  0  0  0  0  0
   -1.7990    8.7287   14.2584 C   0  0  0  0  0  0  0  0  0  0  0  0
   -2.5703    9.6263   10.8399 F   0  0  0  0  0  0  0  0  0  0  0  0
   -1.9476   12.0641   11.8458 F   0  0  0  0  0  0  0  0  0  0  0  0
   -1.2189   12.3153   14.4699 F   0  0  0  0  0  0  0  0  0  0  0  0
   -1.1090   10.1033   16.0598 F   0  0  0  0  0  0  0  0  0  0  0  0
   -1.7049    7.6685   15.0693 F   0  0  0  0  0  0  0  0  0  0  0  0
   -2.3802    3.6195   14.6665 H   0  0  0  0  0  0  0  0  0  0  0  0
   -3.2218    1.7061   16.0068 H   0  0  0  0  0  0  0  0  0  0  0  0
   -7.2441    3.2255   15.6758 H   0  0  0  0  0  0  0  0  0  0  0  0
   -6.4281    5.1150   14.3878 H   0  0  0  0  0  0  0  0  0  0  0  0
   -1.9436    5.5300   13.4346 H   0  0  0  0  0  0  0  0  0  0  0  0
   -3.4888    7.3913   11.7293 H   0  0  0  0  0  0  0  0  0  0  0  0
   -1.7851    6.9736   11.5641 H   0  0  0  0  0  0  0  0  0  0  0  0
   -5.5682   -1.2447   16.6706 H   0  0  0  0  0  0  0  0  0  0  0  0
   -4.8396   -0.3621   15.3431 H   0  0  0  0  0  0  0  0  0  0  0  0
  1  6  2  0  0  0  0
  1  2  1  0  0  0  0
  1 26  1  0  0  0  0
  2  3  2  0  0  0  0
  2 27  1  0  0  0  0
  3 11  1  0  0  0  0
  3  4  1  0  0  0  0
  4  5  2  0  0  0  0
  4 28  1  0  0  0  0
  5  6  1  0  0  0  0
  5 29  1  0  0  0  0
  6  7  1  0  0  0  0
  7  9  1  0  0  0  0
  7  8  2  0  0  0  0
  9 10  1  0  0  0  0
  9 30  1  0  0  0  0
 10 15  1  0  0  0  0
 10 31  1  0  0  0  0
 10 32  1  0  0  0  0
 11 14  2  0  0  0  0
 11 13  2  0  0  0  0
 11 12  1  0  0  0  0
 12 33  1  0  0  0  0
 12 34  1  0  0  0  0
 15 20  2  0  0  0  0
 15 16  1  0  0  0  0
 16 17  2  0  0  0  0
 16 21  1  0  0  0  0
 17 18  1  0  0  0  0
 17 22  1  0  0  0  0
 18 19  2  0  0  0  0
 18 23  1  0  0  0  0
 19 20  1  0  0  0  0
 19 24  1  0  0  0  0
 20 25  1  0  0  0  0
M  END
$$$$
