FHC
 OpenBabel04041914533D

 19 19  0  0  0  0  0  0  0  0999 V2000
   12.1693    2.4449   -4.4556 C   0  0  0  0  0  0  0  0  0  0  0  0
   12.4206    1.4221   -3.4254 C   0  0  0  0  0  0  0  0  0  0  0  0
   13.4863    1.3107   -2.6148 C   0  0  0  0  0  0  0  0  0  0  0  0
   14.6977    2.2887   -2.5552 C   0  0  0  0  0  0  0  0  0  0  0  0
   15.8250    1.7331   -2.4541 O   0  0  0  0  0  0  0  0  0  0  0  0
   14.4227    3.5236   -2.6235 O   0  0  0  0  0  0  0  0  0  0  0  0
   13.1824    2.9248   -5.2991 C   0  0  0  0  0  0  0  0  0  0  0  0
   12.9187    3.8903   -6.2736 C   0  0  0  0  0  0  0  0  0  0  0  0
   11.6235    4.3641   -6.4278 C   0  0  0  0  0  0  0  0  0  0  0  0
   11.3259    5.3026   -7.3732 O   0  0  0  0  0  0  0  0  0  0  0  0
   10.5949    3.8835   -5.6255 C   0  0  0  0  0  0  0  0  0  0  0  0
   10.8651    2.9204   -4.6469 C   0  0  0  0  0  0  0  0  0  0  0  0
   13.4947    0.2432   -1.7706 F   0  0  0  0  0  0  0  0  0  0  0  0
   11.6378    0.6752   -3.3174 H   0  0  0  0  0  0  0  0  0  0  0  0
   14.2061    2.5766   -5.1774 H   0  0  0  0  0  0  0  0  0  0  0  0
   13.7402    4.2573   -6.8793 H   0  0  0  0  0  0  0  0  0  0  0  0
   12.1559    5.5321   -7.8224 H   0  0  0  0  0  0  0  0  0  0  0  0
    9.5856    4.2600   -5.7515 H   0  0  0  0  0  0  0  0  0  0  0  0
   10.0545    2.5581   -4.0207 H   0  0  0  0  0  0  0  0  0  0  0  0
  1 12  2  0  0  0  0
  1  7  1  0  0  0  0
  1  2  1  0  0  0  0
  2  3  2  0  0  0  0
  2 14  1  0  0  0  0
  3  4  1  0  0  0  0
  3 13  1  0  0  0  0
  4  6  2  0  0  0  0
  4  5  1  0  0  0  0
  7  8  2  0  0  0  0
  7 15  1  0  0  0  0
  8  9  1  0  0  0  0
  8 16  1  0  0  0  0
  9 11  2  0  0  0  0
  9 10  1  0  0  0  0
 10 17  1  0  0  0  0
 11 12  1  0  0  0  0
 11 18  1  0  0  0  0
 12 19  1  0  0  0  0
M  END
$$$$
