FIN
 OpenBabel04041918013D

 46 47  0  0  1  0  0  0  0  0999 V2000
   -1.1882   22.3627    5.5580 C   0  0  0  0  0  0  0  0  0  0  0  0
   -0.2487   21.3074    5.4618 C   0  0  0  0  0  0  0  0  0  0  0  0
    0.1576   20.7379    4.2191 C   0  0  0  0  0  0  0  0  0  0  0  0
   -0.3620   21.2020    3.0105 C   0  0  0  0  0  0  0  0  0  0  0  0
   -1.2851   22.2661    3.0724 C   0  0  0  0  0  0  0  0  0  0  0  0
   -1.6876   22.8251    4.3200 C   0  0  0  0  0  0  0  0  0  0  0  0
   -0.0298   20.7241    1.7572 O   0  0  0  0  0  0  0  0  0  0  0  0
    0.6646   19.4717    1.6283 C   0  0  0  0  0  0  0  0  0  0  0  0
   -1.6410   22.9392    6.8972 C   0  0  0  0  0  0  0  0  0  0  0  0
   -0.8883   22.7858    8.0873 C   0  0  0  0  0  0  0  0  0  0  0  0
   -1.3226   23.3150    9.3284 C   0  0  0  0  0  0  0  0  0  0  0  0
   -2.5105   24.0566    9.3940 C   0  0  0  0  0  0  0  0  0  0  0  0
   -3.3126   24.1862    8.2568 C   0  0  0  0  0  0  0  0  0  0  0  0
   -2.8630   23.6488    7.0278 C   0  0  0  0  0  0  0  0  0  0  0  0
   -3.1637   24.5764   11.0011 S   0  0  0  0  0  0  0  0  0  0  0  0
   -4.6294   24.6282   10.8495 O   0  0  0  0  0  0  0  0  0  0  0  0
   -2.6111   23.6382   11.9324 O   0  0  0  0  0  0  0  0  0  0  0  0
   -2.6419   26.0458   11.4598 N   0  0  0  0  0  0  0  0  0  0  0  0
   -3.1709   27.2935   10.9075 C   0  0  1  0  0  0  0  0  0  0  0  0
   -3.7266   28.1616   12.0501 C   0  0  0  0  0  0  0  0  0  0  0  0
   -4.9605   27.5287   12.6723 C   0  0  0  0  0  0  0  0  0  0  0  0
   -2.7463   28.4508   13.1871 C   0  0  0  0  0  0  0  0  0  0  0  0
   -1.7104   28.1552   10.0183 P   0  0  0  0  0  0  0  0  0  0  0  0
   -2.1800   29.6408    9.9161 O   0  0  0  0  0  0  0  0  0  0  0  0
   -0.5386   27.9127   10.9667 O   0  0  0  0  0  0  0  0  0  0  0  0
   -1.6797   27.3880    8.7139 O   0  0  0  0  0  0  0  0  0  0  0  0
    0.1812   20.8942    6.3774 H   0  0  0  0  0  0  0  0  0  0  0  0
    0.8905   19.9343    4.2318 H   0  0  0  0  0  0  0  0  0  0  0  0
   -1.7146   22.6774    2.1555 H   0  0  0  0  0  0  0  0  0  0  0  0
   -2.4073   23.6530    4.3084 H   0  0  0  0  0  0  0  0  0  0  0  0
    0.8541   19.2518    0.5615 H   0  0  0  0  0  0  0  0  0  0  0  0
    0.0581   18.6434    2.0056 H   0  0  0  0  0  0  0  0  0  0  0  0
    1.6454   19.4835    2.1109 H   0  0  0  0  0  0  0  0  0  0  0  0
    0.0775   22.2759    8.0745 H   0  0  0  0  0  0  0  0  0  0  0  0
   -0.7170   23.1671   10.2249 H   0  0  0  0  0  0  0  0  0  0  0  0
   -4.2514   24.7279    8.3140 H   0  0  0  0  0  0  0  0  0  0  0  0
   -3.5057   23.8243    6.1678 H   0  0  0  0  0  0  0  0  0  0  0  0
   -1.7818   26.1945   11.9899 H   0  0  0  0  0  0  0  0  0  0  0  0
   -3.9322   27.0952   10.1488 H   0  0  0  0  0  0  0  0  0  0  0  0
   -4.0237   29.1183   11.6105 H   0  0  0  0  0  0  0  0  0  0  0  0
   -5.3248   28.1674   13.4830 H   0  0  0  0  0  0  0  0  0  0  0  0
   -4.7285   26.5456   13.0967 H   0  0  0  0  0  0  0  0  0  0  0  0
   -5.7508   27.4226   11.9273 H   0  0  0  0  0  0  0  0  0  0  0  0
   -1.8253   28.9059   12.8266 H   0  0  0  0  0  0  0  0  0  0  0  0
   -2.4960   27.5446   13.7516 H   0  0  0  0  0  0  0  0  0  0  0  0
   -3.2016   29.1539   13.8938 H   0  0  0  0  0  0  0  0  0  0  0  0
  1  2  2  0  0  0  0
  1  6  1  0  0  0  0
  1  9  1  0  0  0  0
  2  3  1  0  0  0  0
  2 27  1  0  0  0  0
  3  4  2  0  0  0  0
  3 28  1  0  0  0  0
  4  5  1  0  0  0  0
  4  7  1  0  0  0  0
  5  6  2  0  0  0  0
  5 29  1  0  0  0  0
  6 30  1  0  0  0  0
  7  8  1  0  0  0  0
  8 31  1  0  0  0  0
  8 32  1  0  0  0  0
  8 33  1  0  0  0  0
  9 10  2  0  0  0  0
  9 14  1  0  0  0  0
 10 11  1  0  0  0  0
 10 34  1  0  0  0  0
 11 12  2  0  0  0  0
 11 35  1  0  0  0  0
 12 13  1  0  0  0  0
 12 15  1  0  0  0  0
 13 14  2  0  0  0  0
 13 36  1  0  0  0  0
 14 37  1  0  0  0  0
 15 16  2  0  0  0  0
 15 17  2  0  0  0  0
 15 18  1  0  0  0  0
 18 19  1  0  0  0  0
 18 38  1  0  0  0  0
 19 20  1  0  0  0  0
 19 23  1  0  0  0  0
 19 39  1  6  0  0  0
 20 21  1  0  0  0  0
 20 22  1  0  0  0  0
 20 40  1  0  0  0  0
 21 41  1  0  0  0  0
 21 42  1  0  0  0  0
 21 43  1  0  0  0  0
 22 44  1  0  0  0  0
 22 45  1  0  0  0  0
 22 46  1  0  0  0  0
 23 24  2  0  0  0  0
 23 25  1  0  0  0  0
 23 26  1  0  0  0  0
M  END
$$$$
