FK5
 OpenBabel04041914403D

126129  0  0  1  0  0  0  0  0999 V2000
   19.9694   28.6180   21.7762 C   0  0  0  0  0  0  0  0  0  0  0  0
   18.5761   29.2575   21.9360 C   0  0  2  0  0  0  0  0  0  0  0  0
   17.9316   29.3450   20.5496 C   0  0  0  0  0  0  0  0  0  0  0  0
   18.5097   30.5075   19.7500 C   0  0  0  0  0  0  0  0  0  0  0  0
   18.2661   31.8126   20.4919 C   0  0  0  0  0  0  0  0  0  0  0  0
   18.9708   31.7277   21.8321 C   0  0  0  0  0  0  0  0  0  0  0  0
   17.9312   30.6842   23.8249 C   0  0  0  0  0  0  0  0  0  0  0  0
   17.6810   31.9683   24.5513 C   0  0  0  0  0  0  0  0  0  0  0  0
   18.8066   32.4238   25.4902 C   0  0  1  0  0  0  0  0  0  0  0  0
   19.4452   31.2953   26.3096 C   0  0  1  0  0  0  0  0  0  0  0  0
   20.7988   31.7522   26.9007 C   0  0  0  0  0  0  0  0  0  0  0  0
   21.7203   32.4769   25.8937 C   0  0  1  0  0  0  0  0  0  0  0  0
   20.8781   33.6142   25.2655 C   0  0  1  0  0  0  0  0  0  0  0  0
   21.5685   34.5186   24.2181 C   0  0  2  0  0  0  0  0  0  0  0  0
   22.3966   33.6826   23.2194 C   0  0  0  0  0  0  0  0  0  0  0  0
   22.9218   34.4065   21.9558 C   0  0  2  0  0  0  0  0  0  0  0  0
   24.3190   34.9766   22.2379 C   0  0  0  0  0  0  0  0  0  0  0  0
   25.4125   33.9455   22.0380 C   0  0  0  0  0  0  0  0  0  0  0  0
   25.9433   33.3361   23.1257 C   0  0  0  0  0  0  0  0  0  0  0  0
   26.9974   32.2621   23.1381 C   0  0  2  0  0  0  0  0  0  0  0  0
   26.2261   30.9237   23.2644 C   0  0  0  0  0  0  0  0  0  0  0  0
   25.8470   30.2301   21.9522 C   0  0  0  0  0  0  0  0  0  0  0  0
   24.7491   29.1859   22.1020 C   0  0  1  0  0  0  0  0  0  0  0  0
   23.3233   29.8043   22.1808 C   0  0  2  0  0  0  0  0  0  0  0  0
   22.2595   28.6939   22.3849 C   0  0  1  0  0  0  0  0  0  0  0  0
   22.5075   27.8694   23.6212 C   0  0  0  0  0  0  0  0  0  0  0  0
   22.8527   26.5610   23.4222 C   0  0  0  0  0  0  0  0  0  0  0  0
   23.3140   25.5976   24.4606 C   0  0  1  0  0  0  0  0  0  0  0  0
   22.4120   24.3542   24.4685 C   0  0  0  0  0  0  0  0  0  0  0  0
   22.9632   23.1436   25.2217 C   0  0  2  0  0  0  0  0  0  0  0  0
   24.4097   22.8890   24.7985 C   0  0  1  0  0  0  0  0  0  0  0  0
   25.2426   24.1511   25.0278 C   0  0  0  0  0  0  0  0  0  0  0  0
   24.7457   25.2303   24.0935 C   0  0  0  0  0  0  0  0  0  0  0  0
   18.5291   30.8261   27.4454 C   0  0  0  0  0  0  0  0  0  0  0  0
   22.0003   35.5312   21.5013 C   0  0  0  0  0  0  0  0  0  0  0  0
   25.8156   33.7326   20.6134 C   0  0  0  0  0  0  0  0  0  0  0  0
   28.0009   32.3963   24.2930 C   0  0  0  0  0  0  0  0  0  0  0  0
   28.8901   31.4430   24.6061 C   0  0  0  0  0  0  0  0  0  0  0  0
   29.7487   30.7421   23.5956 C   0  0  0  0  0  0  0  0  0  0  0  0
   22.9748   30.5911   20.9064 C   0  0  0  0  0  0  0  0  0  0  0  0
   22.4974   28.5147   24.9720 C   0  0  0  0  0  0  0  0  0  0  0  0
   24.0201   32.0955   26.5071 C   0  0  0  0  0  0  0  0  0  0  0  0
   21.6505   36.6413   25.3098 C   0  0  0  0  0  0  0  0  0  0  0  0
   21.1844   21.6934   25.9177 C   0  0  0  0  0  0  0  0  0  0  0  0
   18.5182   30.5825   22.5801 N   0  0  0  0  0  0  0  0  0  0  0  0
   20.9379   29.2700   22.4893 O   0  0  0  0  0  0  0  0  0  0  0  0
   20.1446   27.6293   21.0831 O   0  0  0  0  0  0  0  0  0  0  0  0
   17.4534   29.6495   24.4128 O   0  0  0  0  0  0  0  0  0  0  0  0
   16.7176   32.6270   24.2687 O   0  0  0  0  0  0  0  0  0  0  0  0
   19.7573   33.0128   24.6019 O   0  0  0  0  0  0  0  0  0  0  0  0
   18.3422   33.4263   26.3829 O   0  0  0  0  0  0  0  0  0  0  0  0
   22.8995   32.9829   26.5317 O   0  0  0  0  0  0  0  0  0  0  0  0
   22.3903   35.5063   24.8583 O   0  0  0  0  0  0  0  0  0  0  0  0
   25.9102   30.4209   24.3398 O   0  0  0  0  0  0  0  0  0  0  0  0
   24.8387   28.2929   20.9909 O   0  0  0  0  0  0  0  0  0  0  0  0
   22.2115   21.9443   24.9660 O   0  0  0  0  0  0  0  0  0  0  0  0
   24.9476   21.8208   25.5608 O   0  0  0  0  0  0  0  0  0  0  0  0
   18.0103   28.5302   22.5283 H   0  0  0  0  0  0  0  0  0  0  0  0
   16.8573   29.4984   20.6784 H   0  0  0  0  0  0  0  0  0  0  0  0
   18.0851   28.4141   19.9967 H   0  0  0  0  0  0  0  0  0  0  0  0
   18.0427   30.5449   18.7618 H   0  0  0  0  0  0  0  0  0  0  0  0
   19.5897   30.3658   19.6159 H   0  0  0  0  0  0  0  0  0  0  0  0
   17.1896   31.9588   20.6451 H   0  0  0  0  0  0  0  0  0  0  0  0
   18.6497   32.6572   19.9097 H   0  0  0  0  0  0  0  0  0  0  0  0
   18.8030   32.6455   22.3876 H   0  0  0  0  0  0  0  0  0  0  0  0
   20.0439   31.6160   21.6688 H   0  0  0  0  0  0  0  0  0  0  0  0
   19.6338   30.4312   25.6640 H   0  0  0  0  0  0  0  0  0  0  0  0
   21.3113   30.8732   27.3067 H   0  0  0  0  0  0  0  0  0  0  0  0
   20.5921   32.4278   27.7436 H   0  0  0  0  0  0  0  0  0  0  0  0
   21.9965   31.7598   25.1130 H   0  0  0  0  0  0  0  0  0  0  0  0
   20.5261   34.2810   26.0563 H   0  0  0  0  0  0  0  0  0  0  0  0
   20.7859   35.0315   23.6384 H   0  0  0  0  0  0  0  0  0  0  0  0
   21.7950   32.8314   22.8850 H   0  0  0  0  0  0  0  0  0  0  0  0
   23.2605   33.2834   23.7575 H   0  0  0  0  0  0  0  0  0  0  0  0
   22.9877   33.6781   21.1365 H   0  0  0  0  0  0  0  0  0  0  0  0
   24.3483   35.3557   23.2643 H   0  0  0  0  0  0  0  0  0  0  0  0
   24.5238   35.8283   21.5758 H   0  0  0  0  0  0  0  0  0  0  0  0
   25.5292   33.6231   24.1031 H   0  0  0  0  0  0  0  0  0  0  0  0
   27.5328   32.2525   22.1896 H   0  0  0  0  0  0  0  0  0  0  0  0
   26.7456   29.7619   21.5354 H   0  0  0  0  0  0  0  0  0  0  0  0
   25.5212   30.9844   21.2450 H   0  0  0  0  0  0  0  0  0  0  0  0
   24.9576   28.5981   23.0038 H   0  0  0  0  0  0  0  0  0  0  0  0
   23.2871   30.5029   23.0226 H   0  0  0  0  0  0  0  0  0  0  0  0
   22.3046   28.0467   21.5003 H   0  0  0  0  0  0  0  0  0  0  0  0
   22.8320   26.1900   22.3989 H   0  0  0  0  0  0  0  0  0  0  0  0
   23.3117   26.0418   25.4577 H   0  0  0  0  0  0  0  0  0  0  0  0
   22.2341   24.0574   23.4293 H   0  0  0  0  0  0  0  0  0  0  0  0
   21.4533   24.6234   24.9212 H   0  0  0  0  0  0  0  0  0  0  0  0
   22.9500   23.3465   26.3024 H   0  0  0  0  0  0  0  0  0  0  0  0
   24.4572   22.6208   23.7321 H   0  0  0  0  0  0  0  0  0  0  0  0
   26.2999   23.9497   24.8453 H   0  0  0  0  0  0  0  0  0  0  0  0
   25.1391   24.4836   26.0696 H   0  0  0  0  0  0  0  0  0  0  0  0
   25.3954   26.1121   24.1474 H   0  0  0  0  0  0  0  0  0  0  0  0
   24.7669   24.8578   23.0614 H   0  0  0  0  0  0  0  0  0  0  0  0
   17.5624   30.4900   27.0563 H   0  0  0  0  0  0  0  0  0  0  0  0
   18.3452   31.6362   28.1638 H   0  0  0  0  0  0  0  0  0  0  0  0
   18.9871   29.9920   27.9935 H   0  0  0  0  0  0  0  0  0  0  0  0
   21.0010   35.1462   21.2795 H   0  0  0  0  0  0  0  0  0  0  0  0
   22.3917   36.0190   20.6034 H   0  0  0  0  0  0  0  0  0  0  0  0
   21.9215   36.2941   22.2786 H   0  0  0  0  0  0  0  0  0  0  0  0
   26.6022   32.9874   20.5124 H   0  0  0  0  0  0  0  0  0  0  0  0
   26.1849   34.6662   20.1723 H   0  0  0  0  0  0  0  0  0  0  0  0
   24.9631   33.3934   20.0134 H   0  0  0  0  0  0  0  0  0  0  0  0
   27.8680   33.2503   24.9490 H   0  0  0  0  0  0  0  0  0  0  0  0
   29.1645   31.1392   25.6179 H   0  0  0  0  0  0  0  0  0  0  0  0
   30.4190   30.0255   24.0995 H   0  0  0  0  0  0  0  0  0  0  0  0
   30.3742   31.5088   23.1094 H   0  0  0  0  0  0  0  0  0  0  0  0
   29.1135   30.2355   22.8835 H   0  0  0  0  0  0  0  0  0  0  0  0
   23.6776   31.4042   20.7237 H   0  0  0  0  0  0  0  0  0  0  0  0
   21.9859   31.0455   20.9769 H   0  0  0  0  0  0  0  0  0  0  0  0
   22.9789   29.9391   20.0291 H   0  0  0  0  0  0  0  0  0  0  0  0
   22.7330   27.8284   25.7851 H   0  0  0  0  0  0  0  0  0  0  0  0
   21.4935   28.8972   25.1721 H   0  0  0  0  0  0  0  0  0  0  0  0
   23.2108   29.3413   25.0461 H   0  0  0  0  0  0  0  0  0  0  0  0
   24.8778   32.5724   26.9939 H   0  0  0  0  0  0  0  0  0  0  0  0
   24.3041   31.8656   25.4788 H   0  0  0  0  0  0  0  0  0  0  0  0
   23.7906   31.1706   27.0407 H   0  0  0  0  0  0  0  0  0  0  0  0
   22.3300   37.3278   25.8201 H   0  0  0  0  0  0  0  0  0  0  0  0
   20.8556   36.3616   26.0071 H   0  0  0  0  0  0  0  0  0  0  0  0
   21.2131   37.1592   24.4520 H   0  0  0  0  0  0  0  0  0  0  0  0
   20.6803   20.7543   25.6694 H   0  0  0  0  0  0  0  0  0  0  0  0
   20.4535   22.5030   25.8876 H   0  0  0  0  0  0  0  0  0  0  0  0
   21.5981   21.6026   26.9278 H   0  0  0  0  0  0  0  0  0  0  0  0
   17.8991   34.1025   25.8324 H   0  0  0  0  0  0  0  0  0  0  0  0
   24.7118   28.7816   20.1630 H   0  0  0  0  0  0  0  0  0  0  0  0
   24.8442   22.0648   26.5008 H   0  0  0  0  0  0  0  0  0  0  0  0
  1  2  1  0  0  0  0
  1 46  1  0  0  0  0
  1 47  2  0  0  0  0
  2  3  1  0  0  0  0
  2 45  1  0  0  0  0
  2 58  1  1  0  0  0
  3  4  1  0  0  0  0
  3 59  1  0  0  0  0
  3 60  1  0  0  0  0
  4  5  1  0  0  0  0
  4 61  1  0  0  0  0
  4 62  1  0  0  0  0
  5  6  1  0  0  0  0
  5 63  1  0  0  0  0
  5 64  1  0  0  0  0
  6 45  1  0  0  0  0
  6 65  1  0  0  0  0
  6 66  1  0  0  0  0
  7  8  1  0  0  0  0
  7 45  1  0  0  0  0
  7 48  2  0  0  0  0
  8  9  1  0  0  0  0
  8 49  2  0  0  0  0
  9 10  1  0  0  0  0
  9 50  1  0  0  0  0
  9 51  1  1  0  0  0
 10 11  1  0  0  0  0
 10 34  1  0  0  0  0
 10 67  1  6  0  0  0
 11 12  1  0  0  0  0
 11 68  1  0  0  0  0
 11 69  1  0  0  0  0
 12 13  1  0  0  0  0
 12 52  1  0  0  0  0
 12 70  1  6  0  0  0
 13 50  1  0  0  0  0
 13 14  1  0  0  0  0
 13 71  1  1  0  0  0
 14 15  1  0  0  0  0
 14 53  1  0  0  0  0
 14 72  1  6  0  0  0
 15 16  1  0  0  0  0
 15 73  1  0  0  0  0
 15 74  1  0  0  0  0
 16 17  1  0  0  0  0
 16 35  1  0  0  0  0
 16 75  1  6  0  0  0
 17 18  1  0  0  0  0
 17 76  1  0  0  0  0
 17 77  1  0  0  0  0
 18 19  2  0  0  0  0
 18 36  1  0  0  0  0
 19 20  1  0  0  0  0
 19 78  1  0  0  0  0
 20 21  1  0  0  0  0
 20 37  1  0  0  0  0
 20 79  1  6  0  0  0
 21 22  1  0  0  0  0
 21 54  2  0  0  0  0
 22 23  1  0  0  0  0
 22 80  1  0  0  0  0
 22 81  1  0  0  0  0
 23 55  1  0  0  0  0
 23 24  1  0  0  0  0
 23 82  1  1  0  0  0
 24 40  1  0  0  0  0
 24 25  1  0  0  0  0
 24 83  1  1  0  0  0
 25 26  1  0  0  0  0
 25 46  1  0  0  0  0
 25 84  1  6  0  0  0
 26 27  2  0  0  0  0
 26 41  1  0  0  0  0
 27 28  1  0  0  0  0
 27 85  1  0  0  0  0
 28 29  1  0  0  0  0
 28 33  1  0  0  0  0
 28 86  1  1  0  0  0
 29 30  1  0  0  0  0
 29 87  1  0  0  0  0
 29 88  1  0  0  0  0
 30 31  1  0  0  0  0
 30 56  1  0  0  0  0
 30 89  1  1  0  0  0
 31 32  1  0  0  0  0
 31 57  1  0  0  0  0
 31 90  1  6  0  0  0
 32 33  1  0  0  0  0
 32 91  1  0  0  0  0
 32 92  1  0  0  0  0
 33 93  1  0  0  0  0
 33 94  1  0  0  0  0
 34 95  1  0  0  0  0
 34 96  1  0  0  0  0
 34 97  1  0  0  0  0
 35 98  1  0  0  0  0
 35 99  1  0  0  0  0
 35100  1  0  0  0  0
 36101  1  0  0  0  0
 36102  1  0  0  0  0
 36103  1  0  0  0  0
 37 38  2  0  0  0  0
 37104  1  0  0  0  0
 38 39  1  0  0  0  0
 38105  1  0  0  0  0
 39106  1  0  0  0  0
 39107  1  0  0  0  0
 39108  1  0  0  0  0
 40109  1  0  0  0  0
 40110  1  0  0  0  0
 40111  1  0  0  0  0
 41112  1  0  0  0  0
 41113  1  0  0  0  0
 41114  1  0  0  0  0
 42 52  1  0  0  0  0
 42115  1  0  0  0  0
 42116  1  0  0  0  0
 42117  1  0  0  0  0
 43 53  1  0  0  0  0
 43118  1  0  0  0  0
 43119  1  0  0  0  0
 43120  1  0  0  0  0
 44 56  1  0  0  0  0
 44121  1  0  0  0  0
 44122  1  0  0  0  0
 44123  1  0  0  0  0
 51124  1  0  0  0  0
 55125  1  0  0  0  0
 57126  1  0  0  0  0
M  END
$$$$
