FLF
 OpenBabel04041914023D

 29 30  0  0  0  0  0  0  0  0999 V2000
   20.7097   41.9300    3.6539 C   0  0  0  0  0  0  0  0  0  0  0  0
   22.0978   42.5360    1.8108 O   0  0  0  0  0  0  0  0  0  0  0  0
   19.9363   41.0778    2.8372 C   0  0  0  0  0  0  0  0  0  0  0  0
   18.8391   40.3652    3.3424 C   0  0  0  0  0  0  0  0  0  0  0  0
   22.5239   43.4911    3.8118 O   0  0  0  0  0  0  0  0  0  0  0  0
   18.5091   40.4934    4.6798 C   0  0  0  0  0  0  0  0  0  0  0  0
   19.2656   41.3330    5.5034 C   0  0  0  0  0  0  0  0  0  0  0  0
   20.3704   42.0663    5.0159 C   0  0  0  0  0  0  0  0  0  0  0  0
   21.8608   42.7072    3.0482 C   0  0  0  0  0  0  0  0  0  0  0  0
   21.0756   42.9909    5.8333 N   0  0  0  0  0  0  0  0  0  0  0  0
   21.3049   43.0292    7.2137 C   0  0  0  0  0  0  0  0  0  0  0  0
   21.1271   41.8933    7.9922 C   0  0  0  0  0  0  0  0  0  0  0  0
   21.2389   41.9157    9.3788 C   0  0  0  0  0  0  0  0  0  0  0  0
   21.5414   43.1251   10.0158 C   0  0  0  0  0  0  0  0  0  0  0  0
   21.7535   44.2768    9.2593 C   0  0  0  0  0  0  0  0  0  0  0  0
   21.6415   44.2263    7.8616 C   0  0  0  0  0  0  0  0  0  0  0  0
   20.9886   40.6446   10.1262 C   0  0  0  0  0  0  0  0  0  0  0  0
   21.2465   39.5193    9.3909 F   0  0  0  0  0  0  0  0  0  0  0  0
   21.7471   40.5273   11.2521 F   0  0  0  0  0  0  0  0  0  0  0  0
   19.6946   40.5262   10.5330 F   0  0  0  0  0  0  0  0  0  0  0  0
   20.1947   40.9718    1.7886 H   0  0  0  0  0  0  0  0  0  0  0  0
   18.2511   39.7364    2.6823 H   0  0  0  0  0  0  0  0  0  0  0  0
   17.6518   39.9631    5.0846 H   0  0  0  0  0  0  0  0  0  0  0  0
   18.9523   41.4366    6.5367 H   0  0  0  0  0  0  0  0  0  0  0  0
   21.8098   43.4739    5.2691 H   0  0  0  0  0  0  0  0  0  0  0  0
   20.9121   40.9491    7.4955 H   0  0  0  0  0  0  0  0  0  0  0  0
   21.6231   43.1616   11.0990 H   0  0  0  0  0  0  0  0  0  0  0  0
   21.9971   45.2152    9.7516 H   0  0  0  0  0  0  0  0  0  0  0  0
   21.7977   45.1323    7.2807 H   0  0  0  0  0  0  0  0  0  0  0  0
  1  9  1  0  0  0  0
  1  8  2  0  0  0  0
  1  3  1  0  0  0  0
  2  9  2  0  0  0  0
  3  4  2  0  0  0  0
  3 21  1  0  0  0  0
  4  6  1  0  0  0  0
  4 22  1  0  0  0  0
  5  9  1  0  0  0  0
  6  7  2  0  0  0  0
  6 23  1  0  0  0  0
  7  8  1  0  0  0  0
  7 24  1  0  0  0  0
  8 10  1  0  0  0  0
 10 11  1  0  0  0  0
 10 25  1  0  0  0  0
 11 16  2  0  0  0  0
 11 12  1  0  0  0  0
 12 13  2  0  0  0  0
 12 26  1  0  0  0  0
 13 17  1  0  0  0  0
 13 14  1  0  0  0  0
 14 15  2  0  0  0  0
 14 27  1  0  0  0  0
 15 16  1  0  0  0  0
 15 28  1  0  0  0  0
 16 29  1  0  0  0  0
 17 18  1  0  0  0  0
 17 20  1  0  0  0  0
 17 19  1  0  0  0  0
M  END
$$$$
