FLU
 OpenBabel04041914413D

 36 39  0  0  0  0  0  0  0  0999 V2000
   28.9914   22.2982   42.4193 C   0  0  0  0  0  0  0  0  0  0  0  0
   30.1639   21.9721   43.0312 O   0  0  0  0  0  0  0  0  0  0  0  0
   28.2211   21.3164   41.8190 C   0  0  0  0  0  0  0  0  0  0  0  0
   27.0015   21.6658   41.2495 C   0  0  0  0  0  0  0  0  0  0  0  0
   26.2962   20.6553   40.6692 O   0  3  0  0  0  0  0  0  0  0  0  0
   25.0662   20.9412   40.0926 C   0  0  0  0  0  0  0  0  0  0  0  0
   24.3817   19.9405   39.5365 C   0  0  0  0  0  0  0  0  0  0  0  0
   23.0813   20.1858   38.8838 C   0  0  0  0  0  0  0  0  0  0  0  0
   22.4695   19.2789   38.3320 O   0  0  0  0  0  0  0  0  0  0  0  0
   22.5545   21.5642   38.8900 C   0  0  0  0  0  0  0  0  0  0  0  0
   23.2389   22.5487   39.4726 C   0  0  0  0  0  0  0  0  0  0  0  0
   24.5424   22.3170   40.1032 C   0  0  0  0  0  0  0  0  0  0  0  0
   25.2376   23.3273   40.6923 C   0  0  0  0  0  0  0  0  0  0  0  0
   26.5440   22.9844   41.2899 C   0  0  0  0  0  0  0  0  0  0  0  0
   27.3456   23.9581   41.9065 C   0  0  0  0  0  0  0  0  0  0  0  0
   28.5732   23.6185   42.4636 C   0  0  0  0  0  0  0  0  0  0  0  0
   24.6684   24.7009   40.7576 C   0  0  0  0  0  0  0  0  0  0  0  0
   24.6108   25.4570   39.5693 C   0  0  0  0  0  0  0  0  0  0  0  0
   24.0211   26.7205   39.5570 C   0  0  0  0  0  0  0  0  0  0  0  0
   23.5478   27.2716   40.7437 C   0  0  0  0  0  0  0  0  0  0  0  0
   23.6673   26.5653   41.9384 C   0  0  0  0  0  0  0  0  0  0  0  0
   24.2052   25.2663   41.9633 C   0  0  0  0  0  0  0  0  0  0  0  0
   24.2726   24.5491   43.2885 C   0  0  0  0  0  0  0  0  0  0  0  0
   23.7594   23.3904   43.3550 O   0  0  0  0  0  0  0  0  0  0  0  0
   24.8087   25.1929   44.2451 O   0  0  0  0  0  0  0  0  0  0  0  0
   29.9434   21.2197   43.6058 H   0  0  0  0  0  0  0  0  0  0  0  0
   28.5515   20.2795   41.7813 H   0  0  0  0  0  0  0  0  0  0  0  0
   24.7430   18.9193   39.5337 H   0  0  0  0  0  0  0  0  0  0  0  0
   21.5927   21.7303   38.4182 H   0  0  0  0  0  0  0  0  0  0  0  0
   22.8041   23.5409   39.4828 H   0  0  0  0  0  0  0  0  0  0  0  0
   27.0040   24.9870   42.0018 H   0  0  0  0  0  0  0  0  0  0  0  0
   29.1664   24.3791   42.9600 H   0  0  0  0  0  0  0  0  0  0  0  0
   24.9947   25.0387   38.6426 H   0  0  0  0  0  0  0  0  0  0  0  0
   23.9272   27.2652   38.6239 H   0  0  0  0  0  0  0  0  0  0  0  0
   23.0844   28.2540   40.7466 H   0  0  0  0  0  0  0  0  0  0  0  0
   23.3295   27.0048   42.8759 H   0  0  0  0  0  0  0  0  0  0  0  0
  1 16  2  0  0  0  0
  1  3  1  0  0  0  0
  1  2  1  0  0  0  0
  2 26  1  0  0  0  0
  3  4  2  0  0  0  0
  3 27  1  0  0  0  0
  4 14  1  0  0  0  0
  4  5  1  0  0  0  0
  5  6  1  0  0  0  0
  6 12  1  0  0  0  0
  6  7  2  0  0  0  0
  7  8  1  0  0  0  0
  7 28  1  0  0  0  0
  8 10  1  0  0  0  0
  8  9  2  0  0  0  0
 10 11  2  0  0  0  0
 10 29  1  0  0  0  0
 11 12  1  0  0  0  0
 11 30  1  0  0  0  0
 12 13  2  0  0  0  0
 13 17  1  0  0  0  0
 13 14  1  0  0  0  0
 14 15  2  0  0  0  0
 15 16  1  0  0  0  0
 15 31  1  0  0  0  0
 16 32  1  0  0  0  0
 17 22  2  0  0  0  0
 17 18  1  0  0  0  0
 18 19  2  0  0  0  0
 18 33  1  0  0  0  0
 19 20  1  0  0  0  0
 19 34  1  0  0  0  0
 20 21  2  0  0  0  0
 20 35  1  0  0  0  0
 21 22  1  0  0  0  0
 21 36  1  0  0  0  0
 22 23  1  0  0  0  0
 23 25  2  0  0  0  0
 23 24  1  0  0  0  0
M  CHG  1   5   1
M  END
$$$$
