FM2
 OpenBabel04041915183D

 36 38  0  0  1  0  0  0  0  0999 V2000
  144.5504   70.2499   64.7248 N   0  3  0  0  0  0  0  0  0  0  0  0
  143.8015   69.6610   63.7750 C   0  0  0  0  0  0  0  0  0  0  0  0
  143.6901   68.3391   63.5404 N   0  0  0  0  0  0  0  0  0  0  0  0
  144.3858   67.5732   64.4041 C   0  0  0  0  0  0  0  0  0  0  0  0
  145.1544   68.1253   65.4148 C   0  0  0  0  0  0  0  0  0  0  0  0
  145.2643   69.5048   65.5929 C   0  0  0  0  0  0  0  0  0  0  0  0
  146.0525   70.0727   66.5733 N   0  0  0  0  0  0  0  0  0  0  0  0
  145.7041   67.0551   66.0590 N   0  3  0  0  0  0  0  0  0  0  0  0
  145.3168   65.8725   65.5688 N   0  0  0  0  0  0  0  0  0  0  0  0
  144.5542   66.1645   64.4990 C   0  0  0  0  0  0  0  0  0  0  0  0
  144.0814   65.0224   63.6188 C   0  0  1  0  0  0  0  0  0  0  0  0
  143.1719   65.3500   62.4166 C   0  0  2  0  0  0  0  0  0  0  0  0
  141.8787   64.7370   62.5236 O   0  0  0  0  0  0  0  0  0  0  0  0
  143.9169   64.8150   61.1878 C   0  0  2  0  0  0  0  0  0  0  0  0
  143.3930   63.5406   60.7981 O   0  0  0  0  0  0  0  0  0  0  0  0
  145.3507   64.6620   61.6781 C   0  0  2  0  0  0  0  0  0  0  0  0
  145.2278   64.3410   63.0743 O   0  0  0  0  0  0  0  0  0  0  0  0
  146.1616   65.9525   61.4544 C   0  0  0  0  0  0  0  0  0  0  0  0
  147.3289   65.9935   62.2650 O   0  0  0  0  0  0  0  0  0  0  0  0
  144.6003   71.7164   64.7617 C   0  0  0  0  0  0  0  0  0  0  0  0
  143.2280   70.2953   63.1073 H   0  0  0  0  0  0  0  0  0  0  0  0
  146.5536   69.4921   67.2354 H   0  0  0  0  0  0  0  0  0  0  0  0
  146.1066   71.0654   66.7580 H   0  0  0  0  0  0  0  0  0  0  0  0
  146.3565   67.0422   66.8388 H   0  0  0  0  0  0  0  0  0  0  0  0
  143.5704   64.3109   64.2790 H   0  0  0  0  0  0  0  0  0  0  0  0
  142.9890   66.4168   62.2985 H   0  0  0  0  0  0  0  0  0  0  0  0
  142.0362   63.7717   62.5904 H   0  0  0  0  0  0  0  0  0  0  0  0
  143.8371   65.4824   60.3220 H   0  0  0  0  0  0  0  0  0  0  0  0
  142.5109   63.6997   60.4128 H   0  0  0  0  0  0  0  0  0  0  0  0
  145.8691   63.8206   61.2064 H   0  0  0  0  0  0  0  0  0  0  0  0
  145.5730   66.8448   61.6849 H   0  0  0  0  0  0  0  0  0  0  0  0
  146.4650   66.0132   60.4038 H   0  0  0  0  0  0  0  0  0  0  0  0
  147.8504   66.7703   62.0074 H   0  0  0  0  0  0  0  0  0  0  0  0
  143.9550   72.1441   63.9950 H   0  0  0  0  0  0  0  0  0  0  0  0
  145.6354   72.0190   64.5772 H   0  0  0  0  0  0  0  0  0  0  0  0
  144.2621   72.0447   65.7489 H   0  0  0  0  0  0  0  0  0  0  0  0
  1  2  1  0  0  0  0
  1  6  2  0  0  0  0
  1 20  1  0  0  0  0
  2  3  2  0  0  0  0
  2 21  1  0  0  0  0
  3  4  1  0  0  0  0
  4  5  1  0  0  0  0
  4 10  2  0  0  0  0
  5  6  1  0  0  0  0
  5  8  2  0  0  0  0
  6  7  1  0  0  0  0
  7 22  1  0  0  0  0
  7 23  1  0  0  0  0
  8  9  1  0  0  0  0
  8 24  1  0  0  0  0
  9 10  1  0  0  0  0
 10 11  1  0  0  0  0
 11 12  1  0  0  0  0
 11 17  1  0  0  0  0
 11 25  1  1  0  0  0
 12 13  1  0  0  0  0
 12 14  1  0  0  0  0
 12 26  1  6  0  0  0
 13 27  1  0  0  0  0
 14 15  1  0  0  0  0
 14 16  1  0  0  0  0
 14 28  1  6  0  0  0
 15 29  1  0  0  0  0
 16 17  1  0  0  0  0
 16 18  1  0  0  0  0
 16 30  1  6  0  0  0
 18 19  1  0  0  0  0
 18 31  1  0  0  0  0
 18 32  1  0  0  0  0
 19 33  1  0  0  0  0
 20 34  1  0  0  0  0
 20 35  1  0  0  0  0
 20 36  1  0  0  0  0
M  CHG  2   1   1   8   1
M  END
$$$$
