FMB
 OpenBabel04041913523D

 31 33  0  0  1  0  0  0  0  0999 V2000
  -18.6169   72.5352   64.7764 N   0  3  0  0  0  0  0  0  0  0  0  0
  -17.6511   72.8314   65.7181 C   0  0  0  0  0  0  0  0  0  0  0  0
  -17.4198   72.1822   66.8282 N   0  0  0  0  0  0  0  0  0  0  0  0
  -18.2666   71.0768   66.9976 C   0  0  0  0  0  0  0  0  0  0  0  0
  -19.2479   70.7651   66.1007 C   0  0  0  0  0  0  0  0  0  0  0  0
  -19.4765   71.4729   64.8967 C   0  0  0  0  0  0  0  0  0  0  0  0
  -20.3232   71.1884   64.0641 O   0  0  0  0  0  0  0  0  0  0  0  0
  -19.8724   69.6687   66.5731 N   0  3  0  0  0  0  0  0  0  0  0  0
  -19.3661   69.2492   67.7376 N   0  0  0  0  0  0  0  0  0  0  0  0
  -18.3421   70.0916   68.0067 C   0  0  0  0  0  0  0  0  0  0  0  0
  -17.5623   69.8010   69.2539 C   0  0  1  0  0  0  0  0  0  0  0  0
  -16.4262   70.7535   69.6391 C   0  0  2  0  0  0  0  0  0  0  0  0
  -15.1865   70.0308   69.7166 O   0  0  0  0  0  0  0  0  0  0  0  0
  -16.8497   71.3460   70.9919 C   0  0  2  0  0  0  0  0  0  0  0  0
  -16.1216   70.8036   72.0985 O   0  0  0  0  0  0  0  0  0  0  0  0
  -18.3193   70.9539   71.1367 C   0  0  2  0  0  0  0  0  0  0  0  0
  -18.4658   69.7438   70.3847 O   0  0  0  0  0  0  0  0  0  0  0  0
  -19.2704   72.0356   70.6030 C   0  0  0  0  0  0  0  0  0  0  0  0
  -20.6248   71.5918   70.5671 O   0  0  0  0  0  0  0  0  0  0  0  0
  -18.7061   73.0838   63.9352 H   0  0  0  0  0  0  0  0  0  0  0  0
  -17.0514   73.7140   65.4532 H   0  0  0  0  0  0  0  0  0  0  0  0
  -20.6373   69.1387   66.1704 H   0  0  0  0  0  0  0  0  0  0  0  0
  -17.1559   68.7898   69.1190 H   0  0  0  0  0  0  0  0  0  0  0  0
  -16.2775   71.5498   68.9063 H   0  0  0  0  0  0  0  0  0  0  0  0
  -14.4705   70.6675   69.8842 H   0  0  0  0  0  0  0  0  0  0  0  0
  -16.7090   72.4310   71.0172 H   0  0  0  0  0  0  0  0  0  0  0  0
  -15.1749   70.9611   71.9585 H   0  0  0  0  0  0  0  0  0  0  0  0
  -18.5869   70.7153   72.1712 H   0  0  0  0  0  0  0  0  0  0  0  0
  -19.0065   72.3558   69.5923 H   0  0  0  0  0  0  0  0  0  0  0  0
  -19.2272   72.9137   71.2537 H   0  0  0  0  0  0  0  0  0  0  0  0
  -20.6396   70.7916   70.0038 H   0  0  0  0  0  0  0  0  0  0  0  0
  1  2  1  0  0  0  0
  1  6  1  0  0  0  0
  1 20  1  0  0  0  0
  2  3  2  0  0  0  0
  2 21  1  0  0  0  0
  3  4  1  0  0  0  0
  4  5  1  0  0  0  0
  4 10  2  0  0  0  0
  5  6  1  0  0  0  0
  5  8  2  0  0  0  0
  6  7  2  0  0  0  0
  8  9  1  0  0  0  0
  8 22  1  0  0  0  0
  9 10  1  0  0  0  0
 10 11  1  0  0  0  0
 11 12  1  0  0  0  0
 11 17  1  0  0  0  0
 11 23  1  6  0  0  0
 12 13  1  0  0  0  0
 12 14  1  0  0  0  0
 12 24  1  6  0  0  0
 13 25  1  0  0  0  0
 14 15  1  0  0  0  0
 14 16  1  0  0  0  0
 14 26  1  6  0  0  0
 15 27  1  0  0  0  0
 16 17  1  0  0  0  0
 16 18  1  0  0  0  0
 16 28  1  1  0  0  0
 18 19  1  0  0  0  0
 18 29  1  0  0  0  0
 18 30  1  0  0  0  0
 19 31  1  0  0  0  0
M  CHG  2   1   1   8   1
M  END
$$$$
