FMM
 OpenBabel04041917413D

 66 70  0  0  0  0  0  0  0  0999 V2000
   22.6452   34.5276   31.1307 C   0  0  0  0  0  0  0  0  0  0  0  0
   24.0681   33.4719   31.3078 S   0  0  0  0  0  0  0  0  0  0  0  0
   25.0326   34.1957   32.1169 O   0  0  0  0  0  0  0  0  0  0  0  0
   24.4260   33.0157   29.9772 O   0  0  0  0  0  0  0  0  0  0  0  0
   23.5811   32.0333   32.2446 C   0  0  0  0  0  0  0  0  0  0  0  0
   22.0830   31.8023   32.3740 C   0  0  0  0  0  0  0  0  0  0  0  0
   21.5982   32.1483   33.7182 N   0  0  0  0  0  0  0  0  0  0  0  0
   20.8952   31.0431   34.3859 C   0  0  0  0  0  0  0  0  0  0  0  0
   19.4302   31.1471   34.1361 C   0  0  0  0  0  0  0  0  0  0  0  0
   18.7244   30.8866   32.9889 C   0  0  0  0  0  0  0  0  0  0  0  0
   17.3902   31.1692   33.2729 C   0  0  0  0  0  0  0  0  0  0  0  0
   17.3252   31.5874   34.5894 C   0  0  0  0  0  0  0  0  0  0  0  0
   18.5902   31.5760   35.1428 O   0  0  0  0  0  0  0  0  0  0  0  0
   16.1731   32.0216   35.3808 C   0  0  0  0  0  0  0  0  0  0  0  0
   14.9019   31.9874   34.7718 C   0  0  0  0  0  0  0  0  0  0  0  0
   13.7569   32.4246   35.4415 C   0  0  0  0  0  0  0  0  0  0  0  0
   13.8166   32.9123   36.7217 C   0  0  0  0  0  0  0  0  0  0  0  0
   12.6893   33.3298   37.2876 N   0  0  0  0  0  0  0  0  0  0  0  0
   12.7817   33.7870   38.5372 C   0  0  0  0  0  0  0  0  0  0  0  0
   13.9074   33.8608   39.2553 N   0  0  0  0  0  0  0  0  0  0  0  0
   15.0406   33.4365   38.6607 C   0  0  0  0  0  0  0  0  0  0  0  0
   16.2509   33.4156   39.4124 N   0  0  0  0  0  0  0  0  0  0  0  0
   16.3531   33.7556   40.7647 C   0  0  0  0  0  0  0  0  0  0  0  0
   17.1411   34.8366   41.1560 C   0  0  0  0  0  0  0  0  0  0  0  0
   17.2206   35.1946   42.4987 C   0  0  0  0  0  0  0  0  0  0  0  0
   16.5180   34.4714   43.4679 C   0  0  0  0  0  0  0  0  0  0  0  0
   16.5498   34.7512   44.8092 O   0  0  0  0  0  0  0  0  0  0  0  0
   17.0610   36.0198   45.2166 C   0  0  0  0  0  0  0  0  0  0  0  0
   16.0911   37.1663   45.0171 C   0  0  0  0  0  0  0  0  0  0  0  0
   16.5290   38.4775   45.2644 C   0  0  0  0  0  0  0  0  0  0  0  0
   15.6617   39.5625   45.1073 C   0  0  0  0  0  0  0  0  0  0  0  0
   14.3478   39.3508   44.6956 C   0  0  0  0  0  0  0  0  0  0  0  0
   13.9097   38.0571   44.4485 C   0  0  0  0  0  0  0  0  0  0  0  0
   12.6488   37.8523   44.0462 F   0  0  0  0  0  0  0  0  0  0  0  0
   14.7607   36.9702   44.6142 C   0  0  0  0  0  0  0  0  0  0  0  0
   15.7040   33.4028   43.0652 C   0  0  0  0  0  0  0  0  0  0  0  0
   14.7684   32.4884   44.1945 Cl  0  0  0  0  0  0  0  0  0  0  0  0
   15.6082   33.0636   41.7212 C   0  0  0  0  0  0  0  0  0  0  0  0
   15.0730   32.9430   37.3608 C   0  0  0  0  0  0  0  0  0  0  0  0
   16.2397   32.4928   36.6800 C   0  0  0  0  0  0  0  0  0  0  0  0
   22.2578   34.7800   32.1184 H   0  0  0  0  0  0  0  0  0  0  0  0
   21.8939   34.0305   30.5154 H   0  0  0  0  0  0  0  0  0  0  0  0
   22.9663   35.4344   30.6135 H   0  0  0  0  0  0  0  0  0  0  0  0
   24.0676   32.1048   33.2240 H   0  0  0  0  0  0  0  0  0  0  0  0
   24.0407   31.1735   31.7425 H   0  0  0  0  0  0  0  0  0  0  0  0
   21.8859   30.7513   32.1291 H   0  0  0  0  0  0  0  0  0  0  0  0
   21.4967   32.3578   31.6412 H   0  0  0  0  0  0  0  0  0  0  0  0
   22.3434   32.4751   34.3304 H   0  0  0  0  0  0  0  0  0  0  0  0
   21.1261   31.0483   35.4559 H   0  0  0  0  0  0  0  0  0  0  0  0
   21.2497   30.0710   34.0135 H   0  0  0  0  0  0  0  0  0  0  0  0
   19.1464   30.5538   32.0539 H   0  0  0  0  0  0  0  0  0  0  0  0
   16.5636   31.0988   32.5927 H   0  0  0  0  0  0  0  0  0  0  0  0
   14.7792   31.6292   33.7622 H   0  0  0  0  0  0  0  0  0  0  0  0
   12.7977   32.3785   34.9274 H   0  0  0  0  0  0  0  0  0  0  0  0
   11.8681   34.1267   39.0124 H   0  0  0  0  0  0  0  0  0  0  0  0
   17.0423   33.7244   38.8650 H   0  0  0  0  0  0  0  0  0  0  0  0
   17.6779   35.4307   40.4208 H   0  0  0  0  0  0  0  0  0  0  0  0
   17.8322   36.0561   42.7384 H   0  0  0  0  0  0  0  0  0  0  0  0
   18.0279   36.2288   44.7443 H   0  0  0  0  0  0  0  0  0  0  0  0
   17.2746   35.9359   46.2876 H   0  0  0  0  0  0  0  0  0  0  0  0
   17.5527   38.6609   45.5856 H   0  0  0  0  0  0  0  0  0  0  0  0
   16.0115   40.5717   45.3079 H   0  0  0  0  0  0  0  0  0  0  0  0
   13.6617   40.1811   44.5682 H   0  0  0  0  0  0  0  0  0  0  0  0
   14.3642   35.9784   44.4161 H   0  0  0  0  0  0  0  0  0  0  0  0
   14.9589   32.2525   41.4029 H   0  0  0  0  0  0  0  0  0  0  0  0
   17.2115   32.5126   37.1745 H   0  0  0  0  0  0  0  0  0  0  0  0
  1  2  1  0  0  0  0
  1 41  1  0  0  0  0
  1 42  1  0  0  0  0
  1 43  1  0  0  0  0
  2  3  2  0  0  0  0
  2  4  2  0  0  0  0
  2  5  1  0  0  0  0
  5  6  1  0  0  0  0
  5 44  1  0  0  0  0
  5 45  1  0  0  0  0
  6  7  1  0  0  0  0
  6 46  1  0  0  0  0
  6 47  1  0  0  0  0
  7  8  1  0  0  0  0
  7 48  1  0  0  0  0
  8  9  1  0  0  0  0
  8 49  1  0  0  0  0
  8 50  1  0  0  0  0
  9 10  2  0  0  0  0
  9 13  1  0  0  0  0
 10 11  1  0  0  0  0
 10 51  1  0  0  0  0
 11 12  2  0  0  0  0
 11 52  1  0  0  0  0
 12 13  1  0  0  0  0
 12 14  1  0  0  0  0
 14 15  2  0  0  0  0
 14 40  1  0  0  0  0
 15 16  1  0  0  0  0
 15 53  1  0  0  0  0
 16 17  2  0  0  0  0
 16 54  1  0  0  0  0
 17 18  1  0  0  0  0
 17 39  1  0  0  0  0
 18 19  2  0  0  0  0
 19 20  1  0  0  0  0
 19 55  1  0  0  0  0
 20 21  2  0  0  0  0
 21 22  1  0  0  0  0
 21 39  1  0  0  0  0
 22 23  1  0  0  0  0
 22 56  1  0  0  0  0
 23 24  2  0  0  0  0
 23 38  1  0  0  0  0
 24 25  1  0  0  0  0
 24 57  1  0  0  0  0
 25 26  2  0  0  0  0
 25 58  1  0  0  0  0
 26 27  1  0  0  0  0
 26 36  1  0  0  0  0
 27 28  1  0  0  0  0
 28 29  1  0  0  0  0
 28 59  1  0  0  0  0
 28 60  1  0  0  0  0
 29 30  2  0  0  0  0
 29 35  1  0  0  0  0
 30 31  1  0  0  0  0
 30 61  1  0  0  0  0
 31 32  2  0  0  0  0
 31 62  1  0  0  0  0
 32 33  1  0  0  0  0
 32 63  1  0  0  0  0
 33 34  1  0  0  0  0
 33 35  2  0  0  0  0
 35 64  1  0  0  0  0
 36 37  1  0  0  0  0
 36 38  2  0  0  0  0
 38 65  1  0  0  0  0
 39 40  2  0  0  0  0
 40 66  1  0  0  0  0
M  END
$$$$
