FR3
 OpenBabel04041915523D

 42 44  0  0  1  0  0  0  0  0999 V2000
   50.9913   53.9793   20.7894 C   0  0  0  0  0  0  0  0  0  0  0  0
   51.0182   54.9339   21.7794 N   0  3  0  0  0  0  0  0  0  0  0  0
   50.8765   54.2520   22.9660 C   0  0  0  0  0  0  0  0  0  0  0  0
   50.7071   52.9591   22.7853 N   0  0  0  0  0  0  0  0  0  0  0  0
   50.7582   52.7560   21.4209 C   0  0  0  0  0  0  0  0  0  0  0  0
   50.5709   51.4745   20.7372 C   0  0  0  0  0  0  0  0  0  0  0  0
   50.4243   51.3625   19.5281 O   0  0  0  0  0  0  0  0  0  0  0  0
   50.5587   50.3544   21.5271 N   0  0  0  0  0  0  0  0  0  0  0  0
   51.0081   56.4045   21.6395 C   0  0  1  0  0  0  0  0  0  0  0  0
   52.4142   57.0586   21.6248 C   0  0  0  0  0  0  0  0  0  0  0  0
   53.3190   56.5173   22.5778 O   0  0  0  0  0  0  0  0  0  0  0  0
   50.2257   56.8682   20.3880 C   0  0  0  0  0  0  0  0  0  0  0  0
   48.7279   56.5653   20.5131 C   0  0  0  0  0  0  0  0  0  0  0  0
   47.9900   56.7956   19.2106 C   0  0  0  0  0  0  0  0  0  0  0  0
   47.5710   58.0926   18.8759 C   0  0  0  0  0  0  0  0  0  0  0  0
   46.9339   58.3420   17.6596 C   0  0  0  0  0  0  0  0  0  0  0  0
   46.7370   57.3041   16.7476 C   0  0  0  0  0  0  0  0  0  0  0  0
   47.1461   55.9963   17.0523 C   0  0  0  0  0  0  0  0  0  0  0  0
   47.7646   55.7338   18.2977 C   0  0  0  0  0  0  0  0  0  0  0  0
   46.9610   54.9403   16.1396 C   0  0  0  0  0  0  0  0  0  0  0  0
   48.1547   54.4122   18.5738 C   0  0  0  0  0  0  0  0  0  0  0  0
   47.3637   53.6377   16.4524 C   0  0  0  0  0  0  0  0  0  0  0  0
   47.9796   53.3801   17.6638 C   0  0  0  0  0  0  0  0  0  0  0  0
   51.0765   54.1984   19.7413 H   0  0  0  0  0  0  0  0  0  0  0  0
   50.8911   54.7493   23.9283 H   0  0  0  0  0  0  0  0  0  0  0  0
   50.4519   49.4531   21.0957 H   0  0  0  0  0  0  0  0  0  0  0  0
   50.6478   50.4226   22.5505 H   0  0  0  0  0  0  0  0  0  0  0  0
   50.4712   56.7873   22.5228 H   0  0  0  0  0  0  0  0  0  0  0  0
   52.3460   58.1421   21.8132 H   0  0  0  0  0  0  0  0  0  0  0  0
   52.8737   56.9541   20.6375 H   0  0  0  0  0  0  0  0  0  0  0  0
   52.9773   56.6593   23.4758 H   0  0  0  0  0  0  0  0  0  0  0  0
   50.6520   56.3783   19.5028 H   0  0  0  0  0  0  0  0  0  0  0  0
   50.3608   57.9455   20.2214 H   0  0  0  0  0  0  0  0  0  0  0  0
   48.2755   57.1582   21.3141 H   0  0  0  0  0  0  0  0  0  0  0  0
   48.5826   55.5390   20.8547 H   0  0  0  0  0  0  0  0  0  0  0  0
   47.7537   58.9175   19.5605 H   0  0  0  0  0  0  0  0  0  0  0  0
   46.6046   59.3495   17.4136 H   0  0  0  0  0  0  0  0  0  0  0  0
   46.2701   57.5199   15.7881 H   0  0  0  0  0  0  0  0  0  0  0  0
   46.5124   55.1274   15.1662 H   0  0  0  0  0  0  0  0  0  0  0  0
   48.6090   54.1394   19.5169 H   0  0  0  0  0  0  0  0  0  0  0  0
   47.2004   52.8254   15.7545 H   0  0  0  0  0  0  0  0  0  0  0  0
   48.3394   52.3869   17.9245 H   0  0  0  0  0  0  0  0  0  0  0  0
  1  2  1  0  0  0  0
  1  5  2  0  0  0  0
  1 24  1  0  0  0  0
  2  3  2  0  0  0  0
  2  9  1  0  0  0  0
  3  4  1  0  0  0  0
  3 25  1  0  0  0  0
  4  5  1  0  0  0  0
  5  6  1  0  0  0  0
  6  7  2  0  0  0  0
  6  8  1  0  0  0  0
  8 26  1  0  0  0  0
  8 27  1  0  0  0  0
  9 10  1  0  0  0  0
  9 12  1  0  0  0  0
  9 28  1  1  0  0  0
 10 11  1  0  0  0  0
 10 29  1  0  0  0  0
 10 30  1  0  0  0  0
 11 31  1  0  0  0  0
 12 13  1  0  0  0  0
 12 32  1  0  0  0  0
 12 33  1  0  0  0  0
 13 14  1  0  0  0  0
 13 34  1  0  0  0  0
 13 35  1  0  0  0  0
 14 15  2  0  0  0  0
 14 19  1  0  0  0  0
 15 16  1  0  0  0  0
 15 36  1  0  0  0  0
 16 17  2  0  0  0  0
 16 37  1  0  0  0  0
 17 18  1  0  0  0  0
 17 38  1  0  0  0  0
 18 19  2  0  0  0  0
 18 20  1  0  0  0  0
 19 21  1  0  0  0  0
 20 22  2  0  0  0  0
 20 39  1  0  0  0  0
 21 23  2  0  0  0  0
 21 40  1  0  0  0  0
 22 23  1  0  0  0  0
 22 41  1  0  0  0  0
 23 42  1  0  0  0  0
M  CHG  1   2   1
M  END
$$$$
