FR5
 OpenBabel04041915523D

 66 70  0  0  1  0  0  0  0  0999 V2000
   51.3446   54.4425   21.0060 C   0  0  0  0  0  0  0  0  0  0  0  0
   51.2953   55.3608   22.0211 N   0  3  0  0  0  0  0  0  0  0  0  0
   51.1858   54.6540   23.1934 C   0  0  0  0  0  0  0  0  0  0  0  0
   51.0452   53.3608   22.9685 N   0  0  0  0  0  0  0  0  0  0  0  0
   51.0906   53.2215   21.5919 C   0  0  0  0  0  0  0  0  0  0  0  0
   50.8494   51.9734   20.8720 C   0  0  0  0  0  0  0  0  0  0  0  0
   50.6220   51.9099   19.6639 O   0  0  0  0  0  0  0  0  0  0  0  0
   50.8632   50.8569   21.6534 N   0  0  0  0  0  0  0  0  0  0  0  0
   51.1546   56.8095   21.8690 C   0  0  1  0  0  0  0  0  0  0  0  0
   52.5078   57.5485   21.7737 C   0  0  0  0  0  0  0  0  0  0  0  0
   53.4594   57.1466   22.7458 O   0  0  0  0  0  0  0  0  0  0  0  0
   50.3159   57.2161   20.6290 C   0  0  0  0  0  0  0  0  0  0  0  0
   48.8742   56.7063   20.6235 C   0  0  0  0  0  0  0  0  0  0  0  0
   48.2370   56.8683   19.3164 N   0  3  1  0  0  0  0  0  0  0  0  0
   47.7574   58.0430   18.7958 C   0  0  0  0  0  0  0  0  0  0  0  0
   47.2270   57.7679   17.5523 C   0  0  0  0  0  0  0  0  0  0  0  0
   47.4008   56.3853   17.2961 C   0  0  2  0  0  0  0  0  0  0  0  0
   48.0283   55.8456   18.4106 C   0  0  1  0  0  0  0  0  0  0  0  0
   47.0886   55.5408   16.2190 C   0  0  0  0  0  0  0  0  0  0  0  0
   47.4205   54.1796   16.2887 C   0  0  0  0  0  0  0  0  0  0  0  0
   48.0484   53.6756   17.4251 C   0  0  2  0  0  0  0  0  0  0  0  0
   48.3527   54.4995   18.5034 C   0  0  0  0  0  0  0  0  0  0  0  0
   48.4785   52.3631   17.5816 N   0  0  0  0  0  0  0  0  0  0  0  0
   48.3305   51.3190   16.7071 C   0  0  0  0  0  0  0  0  0  0  0  0
   47.6535   51.2994   15.6852 O   0  0  0  0  0  0  0  0  0  0  0  0
   49.2220   50.1774   17.1165 C   0  0  0  0  0  0  0  0  0  0  0  0
   48.5917   48.8585   16.7240 C   0  0  0  0  0  0  0  0  0  0  0  0
   44.6333   47.6017   21.0456 C   0  0  0  0  0  0  0  0  0  0  0  0
   45.8507   48.2333   20.7728 C   0  0  0  0  0  0  0  0  0  0  0  0
   46.3162   48.2588   19.4495 C   0  0  2  0  0  0  0  0  0  0  0  0
   45.5665   47.6677   18.4376 C   0  0  2  0  0  0  0  0  0  0  0  0
   44.3456   47.0293   18.6903 C   0  0  0  0  0  0  0  0  0  0  0  0
   43.8994   47.0037   20.0186 C   0  0  0  0  0  0  0  0  0  0  0  0
   47.4766   48.7847   18.9530 N   0  0  0  0  0  0  0  0  0  0  0  0
   47.4706   48.5236   17.6581 C   0  0  2  0  0  0  0  0  0  0  0  0
   46.3149   47.8712   17.2975 N   0  3  1  0  0  0  0  0  0  0  0  0
   45.9545   47.4206   15.9752 C   0  0  0  0  0  0  0  0  0  0  0  0
   51.4386   54.7147   19.9684 H   0  0  0  0  0  0  0  0  0  0  0  0
   51.1712   55.1225   24.1670 H   0  0  0  0  0  0  0  0  0  0  0  0
   50.6650   49.9587   21.2429 H   0  0  0  0  0  0  0  0  0  0  0  0
   50.9785   50.9551   22.6581 H   0  0  0  0  0  0  0  0  0  0  0  0
   50.6370   57.1469   22.7783 H   0  0  0  0  0  0  0  0  0  0  0  0
   52.3389   58.6280   21.8895 H   0  0  0  0  0  0  0  0  0  0  0  0
   52.9575   57.4022   20.7865 H   0  0  0  0  0  0  0  0  0  0  0  0
   53.2167   57.5203   23.6088 H   0  0  0  0  0  0  0  0  0  0  0  0
   50.8292   56.8718   19.7175 H   0  0  0  0  0  0  0  0  0  0  0  0
   50.2954   58.3089   20.5532 H   0  0  0  0  0  0  0  0  0  0  0  0
   48.2580   57.2524   21.3543 H   0  0  0  0  0  0  0  0  0  0  0  0
   48.8167   55.6526   20.8935 H   0  0  0  0  0  0  0  0  0  0  0  0
   47.8316   58.9768   19.3428 H   0  0  0  0  0  0  0  0  0  0  0  0
   46.7634   58.4826   16.8832 H   0  0  0  0  0  0  0  0  0  0  0  0
   46.6010   55.9238   15.3251 H   0  0  0  0  0  0  0  0  0  0  0  0
   47.1918   53.5466   15.4398 H   0  0  0  0  0  0  0  0  0  0  0  0
   48.8359   54.0914   19.3820 H   0  0  0  0  0  0  0  0  0  0  0  0
   49.0073   52.1617   18.4316 H   0  0  0  0  0  0  0  0  0  0  0  0
   49.4221   50.1989   18.1926 H   0  0  0  0  0  0  0  0  0  0  0  0
   50.1786   50.3273   16.6028 H   0  0  0  0  0  0  0  0  0  0  0  0
   49.3436   48.0726   16.7939 H   0  0  0  0  0  0  0  0  0  0  0  0
   48.2685   48.9134   15.6815 H   0  0  0  0  0  0  0  0  0  0  0  0
   44.2621   47.5743   22.0671 H   0  0  0  0  0  0  0  0  0  0  0  0
   46.4383   48.6854   21.5635 H   0  0  0  0  0  0  0  0  0  0  0  0
   43.7678   46.5637   17.8992 H   0  0  0  0  0  0  0  0  0  0  0  0
   42.9631   46.5040   20.2586 H   0  0  0  0  0  0  0  0  0  0  0  0
   46.6753   47.7618   15.2327 H   0  0  0  0  0  0  0  0  0  0  0  0
   44.9727   47.8251   15.7196 H   0  0  0  0  0  0  0  0  0  0  0  0
   45.9413   46.3282   15.9758 H   0  0  0  0  0  0  0  0  0  0  0  0
  1  2  1  0  0  0  0
  1  5  2  0  0  0  0
  1 38  1  0  0  0  0
  2  3  2  0  0  0  0
  2  9  1  0  0  0  0
  3  4  1  0  0  0  0
  3 39  1  0  0  0  0
  4  5  1  0  0  0  0
  5  6  1  0  0  0  0
  6  7  2  0  0  0  0
  6  8  1  0  0  0  0
  8 40  1  0  0  0  0
  8 41  1  0  0  0  0
  9 10  1  0  0  0  0
  9 12  1  0  0  0  0
  9 42  1  1  0  0  0
 10 11  1  0  0  0  0
 10 43  1  0  0  0  0
 10 44  1  0  0  0  0
 11 45  1  0  0  0  0
 12 13  1  0  0  0  0
 12 46  1  0  0  0  0
 12 47  1  0  0  0  0
 13 48  1  0  0  0  0
 13 49  1  0  0  0  0
 14 13  1  6  0  0  0
 14 15  1  0  0  0  0
 14 18  1  0  0  0  0
 15 16  1  0  0  0  0
 15 50  1  0  0  0  0
 16 51  1  0  0  0  0
 17 16  1  6  0  0  0
 17 18  1  0  0  0  0
 17 19  1  0  0  0  0
 18 22  1  6  0  0  0
 19 20  1  0  0  0  0
 19 52  1  0  0  0  0
 20 21  1  0  0  0  0
 20 53  1  0  0  0  0
 21 22  1  0  0  0  0
 21 23  1  6  0  0  0
 22 54  1  0  0  0  0
 23 24  1  0  0  0  0
 23 55  1  0  0  0  0
 24 25  2  0  0  0  0
 24 26  1  0  0  0  0
 26 27  1  0  0  0  0
 26 56  1  0  0  0  0
 26 57  1  0  0  0  0
 27 58  1  0  0  0  0
 27 59  1  0  0  0  0
 28 29  1  0  0  0  0
 28 33  1  0  0  0  0
 28 60  1  0  0  0  0
 29 61  1  0  0  0  0
 30 29  1  1  0  0  0
 30 31  1  0  0  0  0
 30 34  1  0  0  0  0
 31 32  1  1  0  0  0
 31 36  1  0  0  0  0
 32 33  1  0  0  0  0
 32 62  1  0  0  0  0
 33 63  1  0  0  0  0
 34 35  1  0  0  0  0
 35 27  1  1  0  0  0
 35 36  1  0  0  0  0
 36 37  1  1  0  0  0
 37 64  1  0  0  0  0
 37 65  1  0  0  0  0
 37 66  1  0  0  0  0
M  CHG  3   2   1  14   1  36   1
M  END
$$$$
