FR8
 OpenBabel04041916403D

 66 69  0  0  1  0  0  0  0  0999 V2000
   51.6404   54.4941   20.8816 C   0  0  0  0  0  0  0  0  0  0  0  0
   51.7282   55.4079   21.8998 N   0  3  0  0  0  0  0  0  0  0  0  0
   51.7467   54.7177   23.0897 C   0  0  0  0  0  0  0  0  0  0  0  0
   51.7045   53.4214   22.8654 N   0  0  0  0  0  0  0  0  0  0  0  0
   51.5635   53.2444   21.5000 C   0  0  0  0  0  0  0  0  0  0  0  0
   51.3674   51.9917   20.7480 C   0  0  0  0  0  0  0  0  0  0  0  0
   51.1145   51.9375   19.5448 O   0  0  0  0  0  0  0  0  0  0  0  0
   51.4595   50.8554   21.4743 N   0  0  0  0  0  0  0  0  0  0  0  0
   51.7197   56.8689   21.7912 C   0  0  1  0  0  0  0  0  0  0  0  0
   53.1621   57.4384   21.7551 C   0  0  0  0  0  0  0  0  0  0  0  0
   53.9954   56.8485   22.7516 O   0  0  0  0  0  0  0  0  0  0  0  0
   50.8833   57.2758   20.5773 C   0  0  0  0  0  0  0  0  0  0  0  0
   49.3675   57.1359   20.7840 C   0  0  0  0  0  0  0  0  0  0  0  0
   48.6656   57.3893   19.5153 N   0  3  1  0  0  0  0  0  0  0  0  0
   48.0735   58.5613   19.1009 C   0  0  0  0  0  0  0  0  0  0  0  0
   47.6032   58.3980   17.8133 C   0  0  0  0  0  0  0  0  0  0  0  0
   47.9213   57.0846   17.4137 C   0  0  1  0  0  0  0  0  0  0  0  0
   48.5724   56.4756   18.4916 C   0  0  1  0  0  0  0  0  0  0  0  0
   47.7006   56.3625   16.2217 C   0  0  0  0  0  0  0  0  0  0  0  0
   48.1512   55.0452   16.1433 C   0  0  0  0  0  0  0  0  0  0  0  0
   48.8159   54.4815   17.2236 C   0  0  1  0  0  0  0  0  0  0  0  0
   49.0160   55.1615   18.4130 C   0  0  0  0  0  0  0  0  0  0  0  0
   49.3364   53.1937   17.2244 N   0  0  0  0  0  0  0  0  0  0  0  0
   49.0550   52.2187   16.3260 C   0  0  0  0  0  0  0  0  0  0  0  0
   48.4108   52.3348   15.2628 O   0  0  0  0  0  0  0  0  0  0  0  0
   49.5714   50.8913   16.7643 C   0  0  0  0  0  0  0  0  0  0  0  0
   48.4525   49.8806   16.8724 C   0  0  0  0  0  0  0  0  0  0  0  0
   46.3977   47.1624   16.2456 C   0  0  0  0  0  0  0  0  0  0  0  0
   46.8047   47.4457   17.5546 C   0  0  0  0  0  0  0  0  0  0  0  0
   45.8657   47.5749   18.5727 C   0  0  0  0  0  0  0  0  0  0  0  0
   44.5393   47.2905   18.2991 C   0  0  0  0  0  0  0  0  0  0  0  0
   44.1449   46.9336   17.0093 C   0  0  0  0  0  0  0  0  0  0  0  0
   45.0666   46.9018   15.9691 C   0  0  0  0  0  0  0  0  0  0  0  0
   48.6324   49.0346   18.1268 C   0  0  0  0  0  0  0  0  0  0  0  0
   48.2575   47.5922   17.8684 C   0  0  0  0  0  0  0  0  0  0  0  0
   51.6026   54.7020   19.8299 H   0  0  0  0  0  0  0  0  0  0  0  0
   51.8043   55.2051   24.0485 H   0  0  0  0  0  0  0  0  0  0  0  0
   51.3277   49.9591   21.0123 H   0  0  0  0  0  0  0  0  0  0  0  0
   51.6849   50.9042   22.4505 H   0  0  0  0  0  0  0  0  0  0  0  0
   51.2406   57.2756   22.6989 H   0  0  0  0  0  0  0  0  0  0  0  0
   53.1390   58.5271   21.9426 H   0  0  0  0  0  0  0  0  0  0  0  0
   53.6148   57.2914   20.7680 H   0  0  0  0  0  0  0  0  0  0  0  0
   54.0578   55.8816   22.6004 H   0  0  0  0  0  0  0  0  0  0  0  0
   51.1705   56.6520   19.7261 H   0  0  0  0  0  0  0  0  0  0  0  0
   51.1028   58.3057   20.3010 H   0  0  0  0  0  0  0  0  0  0  0  0
   49.0119   57.8467   21.5401 H   0  0  0  0  0  0  0  0  0  0  0  0
   49.1015   56.1239   21.1370 H   0  0  0  0  0  0  0  0  0  0  0  0
   48.0062   59.4398   19.7211 H   0  0  0  0  0  0  0  0  0  0  0  0
   47.0848   59.1412   17.2213 H   0  0  0  0  0  0  0  0  0  0  0  0
   47.1924   56.8286   15.3923 H   0  0  0  0  0  0  0  0  0  0  0  0
   47.9948   54.5077   15.2111 H   0  0  0  0  0  0  0  0  0  0  0  0
   49.4941   54.6916   19.2465 H   0  0  0  0  0  0  0  0  0  0  0  0
   49.9747   52.9532   17.9817 H   0  0  0  0  0  0  0  0  0  0  0  0
   50.0560   51.0040   17.7321 H   0  0  0  0  0  0  0  0  0  0  0  0
   50.3169   50.5652   16.0403 H   0  0  0  0  0  0  0  0  0  0  0  0
   48.4748   49.2411   15.9835 H   0  0  0  0  0  0  0  0  0  0  0  0
   47.4756   50.3777   16.9143 H   0  0  0  0  0  0  0  0  0  0  0  0
   47.1315   47.1399   15.4456 H   0  0  0  0  0  0  0  0  0  0  0  0
   46.1747   47.8772   19.5711 H   0  0  0  0  0  0  0  0  0  0  0  0
   43.8087   47.3392   19.0959 H   0  0  0  0  0  0  0  0  0  0  0  0
   43.1087   46.6913   16.8154 H   0  0  0  0  0  0  0  0  0  0  0  0
   44.7518   46.6649   14.9574 H   0  0  0  0  0  0  0  0  0  0  0  0
   48.0101   49.4430   18.9315 H   0  0  0  0  0  0  0  0  0  0  0  0
   49.6770   49.0578   18.4517 H   0  0  0  0  0  0  0  0  0  0  0  0
   48.8439   47.1983   17.0307 H   0  0  0  0  0  0  0  0  0  0  0  0
   48.4807   46.9869   18.7543 H   0  0  0  0  0  0  0  0  0  0  0  0
  1  2  1  0  0  0  0
  1  5  2  0  0  0  0
  1 36  1  0  0  0  0
  2  3  2  0  0  0  0
  2  9  1  0  0  0  0
  3  4  1  0  0  0  0
  3 37  1  0  0  0  0
  4  5  1  0  0  0  0
  5  6  1  0  0  0  0
  6  7  2  0  0  0  0
  6  8  1  0  0  0  0
  8 38  1  0  0  0  0
  8 39  1  0  0  0  0
  9 10  1  0  0  0  0
  9 12  1  0  0  0  0
  9 40  1  1  0  0  0
 10 11  1  0  0  0  0
 10 41  1  0  0  0  0
 10 42  1  0  0  0  0
 11 43  1  0  0  0  0
 12 13  1  0  0  0  0
 12 44  1  0  0  0  0
 12 45  1  0  0  0  0
 13 46  1  0  0  0  0
 13 47  1  0  0  0  0
 14 13  1  6  0  0  0
 14 15  1  0  0  0  0
 14 18  1  0  0  0  0
 15 16  1  0  0  0  0
 15 48  1  0  0  0  0
 16 49  1  0  0  0  0
 17 16  1  1  0  0  0
 17 18  1  0  0  0  0
 17 19  1  0  0  0  0
 18 22  1  6  0  0  0
 19 20  1  0  0  0  0
 19 50  1  0  0  0  0
 20 21  1  0  0  0  0
 20 51  1  0  0  0  0
 21 22  1  0  0  0  0
 21 23  1  1  0  0  0
 22 52  1  0  0  0  0
 23 24  1  0  0  0  0
 23 53  1  0  0  0  0
 24 25  2  0  0  0  0
 24 26  1  0  0  0  0
 26 27  1  0  0  0  0
 26 54  1  0  0  0  0
 26 55  1  0  0  0  0
 27 34  1  0  0  0  0
 27 56  1  0  0  0  0
 27 57  1  0  0  0  0
 28 29  1  0  0  0  0
 28 33  1  0  0  0  0
 28 58  1  0  0  0  0
 29 30  1  0  0  0  0
 29 35  1  0  0  0  0
 30 31  1  0  0  0  0
 30 59  1  0  0  0  0
 31 32  1  0  0  0  0
 31 60  1  0  0  0  0
 32 33  1  0  0  0  0
 32 61  1  0  0  0  0
 33 62  1  0  0  0  0
 34 35  1  0  0  0  0
 34 63  1  0  0  0  0
 34 64  1  0  0  0  0
 35 65  1  0  0  0  0
 35 66  1  0  0  0  0
M  CHG  2   2   1  14   1
M  END
$$$$
