FRG
 OpenBabel04041915413D

 64 66  0  0  1  0  0  0  0  0999 V2000
    2.5638   20.9792    0.0836 N   0  0  0  0  0  0  0  0  0  0  0  0
    2.5701   20.1009   -0.9264 C   0  0  0  0  0  0  0  0  0  0  0  0
    3.6551   19.3080   -0.9943 N   0  0  0  0  0  0  0  0  0  0  0  0
    1.5530   20.0298   -1.8700 N   0  0  0  0  0  0  0  0  0  0  0  0
    1.5325   18.8865   -2.8077 C   0  0  0  0  0  0  0  0  0  0  0  0
    0.7760   21.2490   -2.2543 C   0  0  0  0  0  0  0  0  0  0  0  0
    0.7956   21.5491   -3.7606 C   0  0  0  0  0  0  0  0  0  0  0  0
    0.7632   20.3355   -4.6742 C   0  0  0  0  0  0  0  0  0  0  0  0
    1.7815   19.2858   -4.2564 C   0  0  2  0  0  0  0  0  0  0  0  0
    1.6907   18.0486   -5.1680 C   0  0  0  0  0  0  0  0  0  0  0  0
    1.8900   18.4209   -6.6238 C   0  0  0  0  0  0  0  0  0  0  0  0
    2.9521   18.8869   -7.0143 O   0  0  0  0  0  0  0  0  0  0  0  0
    0.8040   18.2531   -7.4396 N   0  0  0  0  0  0  0  0  0  0  0  0
    0.9258   18.4674   -8.8783 C   0  0  2  0  0  0  0  0  0  0  0  0
    0.8050   19.9703   -9.3140 C   0  0  0  0  0  0  0  0  0  0  0  0
    1.4520   20.3907  -10.2660 O   0  0  0  0  0  0  0  0  0  0  0  0
   -0.1088   20.7293   -8.6189 O   0  0  0  0  0  0  0  0  0  0  0  0
   -0.4178   22.0607   -9.1450 C   0  0  0  0  0  0  0  0  0  0  0  0
   -0.0648   17.5888   -9.6543 C   0  0  0  0  0  0  0  0  0  0  0  0
   -0.0321   16.1004   -9.4130 C   0  0  0  0  0  0  0  0  0  0  0  0
   -1.0432   15.4686   -8.6719 C   0  0  0  0  0  0  0  0  0  0  0  0
   -1.0332   14.0809   -8.5055 C   0  0  0  0  0  0  0  0  0  0  0  0
    0.9817   15.3361   -9.9918 C   0  0  0  0  0  0  0  0  0  0  0  0
    0.9951   13.9571   -9.8154 C   0  0  0  0  0  0  0  0  0  0  0  0
   -0.0048   13.3162   -9.0735 C   0  0  0  0  0  0  0  0  0  0  0  0
    0.0415   11.8650   -8.9264 C   0  0  0  0  0  0  0  0  0  0  0  0
    0.1032   10.7054   -8.8585 C   0  0  0  0  0  0  0  0  0  0  0  0
    0.1485    9.2513   -8.8283 C   0  0  0  0  0  0  0  0  0  0  0  0
   -0.6989    8.5181   -9.6714 C   0  0  0  0  0  0  0  0  0  0  0  0
   -0.6910    7.1260   -9.6549 C   0  0  0  0  0  0  0  0  0  0  0  0
    1.0143    8.5753   -7.9608 C   0  0  0  0  0  0  0  0  0  0  0  0
    1.0263    7.1809   -7.9430 C   0  0  0  0  0  0  0  0  0  0  0  0
    0.1695    6.4656   -8.7829 C   0  0  0  0  0  0  0  0  0  0  0  0
    3.3078   20.9889    0.7758 H   0  0  0  0  0  0  0  0  0  0  0  0
    4.4393   19.4129   -0.3643 H   0  0  0  0  0  0  0  0  0  0  0  0
    3.7502   18.5909   -1.6948 H   0  0  0  0  0  0  0  0  0  0  0  0
    0.5917   18.3359   -2.7235 H   0  0  0  0  0  0  0  0  0  0  0  0
    2.3170   18.1989   -2.5161 H   0  0  0  0  0  0  0  0  0  0  0  0
    1.2401   22.1078   -1.7546 H   0  0  0  0  0  0  0  0  0  0  0  0
   -0.2686   21.1784   -1.9285 H   0  0  0  0  0  0  0  0  0  0  0  0
   -0.0711   22.1803   -4.0019 H   0  0  0  0  0  0  0  0  0  0  0  0
    1.7006   22.1263   -3.9909 H   0  0  0  0  0  0  0  0  0  0  0  0
   -0.2415   19.8964   -4.6643 H   0  0  0  0  0  0  0  0  0  0  0  0
    0.9801   20.6604   -5.7019 H   0  0  0  0  0  0  0  0  0  0  0  0
    2.7888   19.7144   -4.3416 H   0  0  0  0  0  0  0  0  0  0  0  0
    0.7259   17.5466   -5.0359 H   0  0  0  0  0  0  0  0  0  0  0  0
    2.4859   17.3362   -4.9016 H   0  0  0  0  0  0  0  0  0  0  0  0
   -0.0867   17.9651   -7.0664 H   0  0  0  0  0  0  0  0  0  0  0  0
    1.9368   18.1536   -9.1800 H   0  0  0  0  0  0  0  0  0  0  0  0
   -1.1193   22.5762   -8.4619 H   0  0  0  0  0  0  0  0  0  0  0  0
   -0.9141   21.9706  -10.1198 H   0  0  0  0  0  0  0  0  0  0  0  0
    0.4801   22.6842   -9.2383 H   0  0  0  0  0  0  0  0  0  0  0  0
    0.1190   17.7244  -10.7242 H   0  0  0  0  0  0  0  0  0  0  0  0
   -1.0731   17.9231   -9.4156 H   0  0  0  0  0  0  0  0  0  0  0  0
   -1.8418   16.0609   -8.2305 H   0  0  0  0  0  0  0  0  0  0  0  0
   -1.8302   13.5982   -7.9445 H   0  0  0  0  0  0  0  0  0  0  0  0
    1.7563   15.8183  -10.5832 H   0  0  0  0  0  0  0  0  0  0  0  0
    1.7889   13.3711  -10.2687 H   0  0  0  0  0  0  0  0  0  0  0  0
   -1.3735    9.0477  -10.3390 H   0  0  0  0  0  0  0  0  0  0  0  0
   -1.3470    6.5629  -10.3156 H   0  0  0  0  0  0  0  0  0  0  0  0
    1.6703    9.1337   -7.2966 H   0  0  0  0  0  0  0  0  0  0  0  0
    1.7018    6.6507   -7.2803 H   0  0  0  0  0  0  0  0  0  0  0  0
    0.1750    5.3830   -8.7525 H   0  0  0  0  0  0  0  0  0  0  0  0
    1.7780   21.5963    0.2195 H   0  0  0  0  0  0  0  0  0  0  0  0
  1  2  2  0  0  0  0
  1 34  1  0  0  0  0
  1 64  1  0  0  0  0
  2  4  1  0  0  0  0
  2  3  1  0  0  0  0
  3 35  1  0  0  0  0
  3 36  1  0  0  0  0
  4  6  1  0  0  0  0
  4  5  1  0  0  0  0
  5  9  1  0  0  0  0
  5 37  1  0  0  0  0
  5 38  1  0  0  0  0
  6  7  1  0  0  0  0
  6 39  1  0  0  0  0
  6 40  1  0  0  0  0
  7  8  1  0  0  0  0
  7 41  1  0  0  0  0
  7 42  1  0  0  0  0
  8  9  1  0  0  0  0
  8 43  1  0  0  0  0
  8 44  1  0  0  0  0
  9 10  1  0  0  0  0
  9 45  1  6  0  0  0
 10 11  1  0  0  0  0
 10 46  1  0  0  0  0
 10 47  1  0  0  0  0
 11 13  1  0  0  0  0
 11 12  2  0  0  0  0
 13 14  1  0  0  0  0
 13 48  1  0  0  0  0
 14 19  1  0  0  0  0
 14 15  1  0  0  0  0
 14 49  1  6  0  0  0
 15 17  1  0  0  0  0
 15 16  2  0  0  0  0
 17 18  1  0  0  0  0
 18 50  1  0  0  0  0
 18 51  1  0  0  0  0
 18 52  1  0  0  0  0
 19 20  1  0  0  0  0
 19 53  1  0  0  0  0
 19 54  1  0  0  0  0
 20 23  2  0  0  0  0
 20 21  1  0  0  0  0
 21 22  2  0  0  0  0
 21 55  1  0  0  0  0
 22 25  1  0  0  0  0
 22 56  1  0  0  0  0
 23 24  1  0  0  0  0
 23 57  1  0  0  0  0
 24 25  2  0  0  0  0
 24 58  1  0  0  0  0
 25 26  1  0  0  0  0
 26 27  3  0  0  0  0
 27 28  1  0  0  0  0
 28 31  2  0  0  0  0
 28 29  1  0  0  0  0
 29 30  2  0  0  0  0
 29 59  1  0  0  0  0
 30 33  1  0  0  0  0
 30 60  1  0  0  0  0
 31 32  1  0  0  0  0
 31 61  1  0  0  0  0
 32 33  2  0  0  0  0
 32 62  1  0  0  0  0
 33 63  1  0  0  0  0
M  END
$$$$
