FSB
 OpenBabel04041914443D

 34 35  0  0  0  0  0  0  0  0999 V2000
   -3.8813    3.3957   14.6639 C   0  0  0  0  0  0  0  0  0  0  0  0
   -4.3265    2.2849   15.4011 C   0  0  0  0  0  0  0  0  0  0  0  0
   -5.6279    2.2601   15.8987 C   0  0  0  0  0  0  0  0  0  0  0  0
   -6.4898    3.3348   15.6636 C   0  0  0  0  0  0  0  0  0  0  0  0
   -6.0368    4.4472   14.9325 C   0  0  0  0  0  0  0  0  0  0  0  0
   -4.7283    4.4858   14.4221 C   0  0  0  0  0  0  0  0  0  0  0  0
   -4.2994    5.7038   13.6453 C   0  0  0  0  0  0  0  0  0  0  0  0
   -5.0930    6.6200   13.4611 O   0  0  0  0  0  0  0  0  0  0  0  0
   -3.0013    5.7383   13.1699 N   0  0  0  0  0  0  0  0  0  0  0  0
   -2.4537    6.8540   12.4092 C   0  0  0  0  0  0  0  0  0  0  0  0
   -6.1791    0.9181   16.9221 S   0  0  0  0  0  0  0  0  0  0  0  0
   -5.6335   -0.4661   16.1712 N   0  0  0  0  0  0  0  0  0  0  0  0
   -7.6137    0.8676   16.8850 O   0  0  0  0  0  0  0  0  0  0  0  0
   -5.4421    1.0018   18.1689 O   0  0  0  0  0  0  0  0  0  0  0  0
   -1.6933    7.8311   13.2666 C   0  0  0  0  0  0  0  0  0  0  0  0
   -2.2551    8.3381   14.4442 C   0  0  0  0  0  0  0  0  0  0  0  0
   -1.5733    9.2832   15.2151 C   0  0  0  0  0  0  0  0  0  0  0  0
   -0.3272    9.7522   14.8112 C   0  0  0  0  0  0  0  0  0  0  0  0
    0.2378    9.2731   13.6299 C   0  0  0  0  0  0  0  0  0  0  0  0
   -0.4463    8.3263   12.8695 C   0  0  0  0  0  0  0  0  0  0  0  0
    0.1148    7.8941   11.7291 F   0  0  0  0  0  0  0  0  0  0  0  0
   -2.8583    3.3739   14.3105 H   0  0  0  0  0  0  0  0  0  0  0  0
   -3.6365    1.4729   15.6036 H   0  0  0  0  0  0  0  0  0  0  0  0
   -7.5039    3.3375   16.0642 H   0  0  0  0  0  0  0  0  0  0  0  0
   -6.7123    5.2836   14.7768 H   0  0  0  0  0  0  0  0  0  0  0  0
   -2.3471    5.0058   13.3861 H   0  0  0  0  0  0  0  0  0  0  0  0
   -3.2535    7.3769   11.8744 H   0  0  0  0  0  0  0  0  0  0  0  0
   -1.7881    6.4009   11.6667 H   0  0  0  0  0  0  0  0  0  0  0  0
   -5.9612   -1.3356   16.5841 H   0  0  0  0  0  0  0  0  0  0  0  0
   -5.2577   -0.4536   15.2304 H   0  0  0  0  0  0  0  0  0  0  0  0
   -3.2404    8.0129   14.7687 H   0  0  0  0  0  0  0  0  0  0  0  0
   -2.0314    9.6612   16.1280 H   0  0  0  0  0  0  0  0  0  0  0  0
    0.1952   10.4959   15.4082 H   0  0  0  0  0  0  0  0  0  0  0  0
    1.2033    9.6411   13.2938 H   0  0  0  0  0  0  0  0  0  0  0  0
  1  6  2  0  0  0  0
  1  2  1  0  0  0  0
  1 22  1  0  0  0  0
  2  3  2  0  0  0  0
  2 23  1  0  0  0  0
  3 11  1  0  0  0  0
  3  4  1  0  0  0  0
  4  5  2  0  0  0  0
  4 24  1  0  0  0  0
  5  6  1  0  0  0  0
  5 25  1  0  0  0  0
  6  7  1  0  0  0  0
  7  9  1  0  0  0  0
  7  8  2  0  0  0  0
  9 10  1  0  0  0  0
  9 26  1  0  0  0  0
 10 15  1  0  0  0  0
 10 27  1  0  0  0  0
 10 28  1  0  0  0  0
 11 14  2  0  0  0  0
 11 13  2  0  0  0  0
 11 12  1  0  0  0  0
 12 29  1  0  0  0  0
 12 30  1  0  0  0  0
 15 20  2  0  0  0  0
 15 16  1  0  0  0  0
 16 17  2  0  0  0  0
 16 31  1  0  0  0  0
 17 18  1  0  0  0  0
 17 32  1  0  0  0  0
 18 19  2  0  0  0  0
 18 33  1  0  0  0  0
 19 20  1  0  0  0  0
 19 34  1  0  0  0  0
 20 21  1  0  0  0  0
M  END
$$$$
