FSB
 OpenBabel04041914423D

 34 35  0  0  0  0  0  0  0  0999 V2000
   -3.7434    3.4310   14.6329 C   0  0  0  0  0  0  0  0  0  0  0  0
   -4.1840    2.3351   15.3942 C   0  0  0  0  0  0  0  0  0  0  0  0
   -5.4940    2.3126   15.8830 C   0  0  0  0  0  0  0  0  0  0  0  0
   -6.3546    3.3807   15.6181 C   0  0  0  0  0  0  0  0  0  0  0  0
   -5.9050    4.4755   14.8632 C   0  0  0  0  0  0  0  0  0  0  0  0
   -4.5945    4.5117   14.3519 C   0  0  0  0  0  0  0  0  0  0  0  0
   -4.1645    5.7052   13.5327 C   0  0  0  0  0  0  0  0  0  0  0  0
   -4.9580    6.6184   13.3307 O   0  0  0  0  0  0  0  0  0  0  0  0
   -2.8624    5.7303   13.0606 N   0  0  0  0  0  0  0  0  0  0  0  0
   -2.2852    6.8638   12.3396 C   0  0  0  0  0  0  0  0  0  0  0  0
   -6.0528    0.9737   16.9159 S   0  0  0  0  0  0  0  0  0  0  0  0
   -5.5198   -0.4118   16.1649 N   0  0  0  0  0  0  0  0  0  0  0  0
   -7.4997    0.9257   16.8559 O   0  0  0  0  0  0  0  0  0  0  0  0
   -5.3420    1.0681   18.1612 O   0  0  0  0  0  0  0  0  0  0  0  0
   -1.6480    7.9016   13.2328 C   0  0  0  0  0  0  0  0  0  0  0  0
   -1.9396    7.9772   14.6018 C   0  0  0  0  0  0  0  0  0  0  0  0
   -1.3812    8.9667   15.4087 C   0  0  0  0  0  0  0  0  0  0  0  0
   -0.5200    9.9116   14.8605 C   0  0  0  0  0  0  0  0  0  0  0  0
   -0.2174    9.8624   13.5006 C   0  0  0  0  0  0  0  0  0  0  0  0
   -0.7813    8.8667   12.6988 C   0  0  0  0  0  0  0  0  0  0  0  0
   -0.4772    8.8472   11.3928 F   0  0  0  0  0  0  0  0  0  0  0  0
   -2.7172    3.4134   14.2869 H   0  0  0  0  0  0  0  0  0  0  0  0
   -3.4904    1.5283   15.6132 H   0  0  0  0  0  0  0  0  0  0  0  0
   -7.3717    3.3778   16.0087 H   0  0  0  0  0  0  0  0  0  0  0  0
   -6.5890    5.3060   14.6841 H   0  0  0  0  0  0  0  0  0  0  0  0
   -2.2078    5.0107   13.3119 H   0  0  0  0  0  0  0  0  0  0  0  0
   -3.0509    7.3290   11.7112 H   0  0  0  0  0  0  0  0  0  0  0  0
   -1.5097    6.4309   11.6960 H   0  0  0  0  0  0  0  0  0  0  0  0
   -5.7515   -1.2855   16.6317 H   0  0  0  0  0  0  0  0  0  0  0  0
   -5.0264   -0.4062   15.2808 H   0  0  0  0  0  0  0  0  0  0  0  0
   -2.6253    7.2715   15.0592 H   0  0  0  0  0  0  0  0  0  0  0  0
   -1.6390    8.9984   16.4640 H   0  0  0  0  0  0  0  0  0  0  0  0
   -0.0980   10.6868   15.4940 H   0  0  0  0  0  0  0  0  0  0  0  0
    0.4473   10.6013   13.0620 H   0  0  0  0  0  0  0  0  0  0  0  0
  1  6  2  0  0  0  0
  1  2  1  0  0  0  0
  1 22  1  0  0  0  0
  2  3  2  0  0  0  0
  2 23  1  0  0  0  0
  3 11  1  0  0  0  0
  3  4  1  0  0  0  0
  4  5  2  0  0  0  0
  4 24  1  0  0  0  0
  5  6  1  0  0  0  0
  5 25  1  0  0  0  0
  6  7  1  0  0  0  0
  7  9  1  0  0  0  0
  7  8  2  0  0  0  0
  9 10  1  0  0  0  0
  9 26  1  0  0  0  0
 10 15  1  0  0  0  0
 10 27  1  0  0  0  0
 10 28  1  0  0  0  0
 11 14  2  0  0  0  0
 11 13  2  0  0  0  0
 11 12  1  0  0  0  0
 12 29  1  0  0  0  0
 12 30  1  0  0  0  0
 15 20  2  0  0  0  0
 15 16  1  0  0  0  0
 16 17  2  0  0  0  0
 16 31  1  0  0  0  0
 17 18  1  0  0  0  0
 17 32  1  0  0  0  0
 18 19  2  0  0  0  0
 18 33  1  0  0  0  0
 19 20  1  0  0  0  0
 19 34  1  0  0  0  0
 20 21  1  0  0  0  0
M  END
$$$$
