FSN
 OpenBabel04041916163D

 55 59  0  0  1  0  0  0  0  0999 V2000
   16.6623  -12.7841   22.7083 O   0  0  0  0  0  0  0  0  0  0  0  0
   17.4237  -12.5602   21.7840 C   0  0  0  0  0  0  0  0  0  0  0  0
   18.4952  -13.3179   21.4119 N   0  0  0  0  0  0  0  0  0  0  0  0
   18.8813  -14.5198   22.1398 C   0  0  0  0  0  0  0  0  0  0  0  0
   19.7908  -14.2077   23.2967 C   0  0  0  0  0  0  0  0  0  0  0  0
   19.2685  -14.0736   24.5944 C   0  0  0  0  0  0  0  0  0  0  0  0
   20.1167  -13.8025   25.6651 C   0  0  0  0  0  0  0  0  0  0  0  0
   21.4806  -13.6609   25.4376 C   0  0  0  0  0  0  0  0  0  0  0  0
   22.2915  -13.4105   26.4718 F   0  0  0  0  0  0  0  0  0  0  0  0
   22.0135  -13.7728   24.1574 C   0  0  0  0  0  0  0  0  0  0  0  0
   21.1681  -14.0430   23.0832 C   0  0  0  0  0  0  0  0  0  0  0  0
   19.0366  -12.9227   20.2277 C   0  0  0  0  0  0  0  0  0  0  0  0
   19.9341  -13.4752   19.6014 O   0  0  0  0  0  0  0  0  0  0  0  0
   18.2121  -11.7896   19.6668 C   0  0  1  0  0  0  0  0  0  0  0  0
   17.3266  -12.3933   18.5746 C   0  0  1  0  0  0  0  0  0  0  0  0
   15.8885  -12.3258   19.0968 N   0  3  2  0  0  0  0  0  0  0  0  0
   14.9824  -11.9885   17.9256 C   0  0  0  0  0  0  0  0  0  0  0  0
   15.8864  -12.1629   16.7225 C   0  0  0  0  0  0  0  0  0  0  0  0
   17.2475  -11.6901   17.2224 C   0  0  0  0  0  0  0  0  0  0  0  0
   15.9061  -11.2808   20.1874 C   0  0  1  0  0  0  0  0  0  0  0  0
   14.7025  -11.2261   21.0845 C   0  0  0  0  0  0  0  0  0  0  0  0
   13.9230  -12.3488   21.3595 C   0  0  0  0  0  0  0  0  0  0  0  0
   12.8422  -12.2613   22.2429 C   0  0  0  0  0  0  0  0  0  0  0  0
   12.4890  -11.0516   22.8603 C   0  0  0  0  0  0  0  0  0  0  0  0
   13.2640   -9.9244   22.5659 C   0  0  0  0  0  0  0  0  0  0  0  0
   14.3590  -10.0085   21.6940 C   0  0  0  0  0  0  0  0  0  0  0  0
   11.3336  -10.9864   23.7878 C   0  0  0  0  0  0  0  0  0  0  0  0
   10.5381  -12.0224   23.9169 N   0  0  0  0  0  0  0  0  0  0  0  0
   11.0744   -9.9098   24.4928 N   0  0  0  0  0  0  0  0  0  0  0  0
   17.2829  -11.4142   20.8198 C   0  0  1  0  0  0  0  0  0  0  0  0
   19.3611  -15.2386   21.4678 H   0  0  0  0  0  0  0  0  0  0  0  0
   17.9704  -15.0009   22.5216 H   0  0  0  0  0  0  0  0  0  0  0  0
   18.2021  -14.1898   24.7820 H   0  0  0  0  0  0  0  0  0  0  0  0
   19.7302  -13.7082   26.6754 H   0  0  0  0  0  0  0  0  0  0  0  0
   23.0830  -13.6573   24.0084 H   0  0  0  0  0  0  0  0  0  0  0  0
   21.5882  -14.1410   22.0828 H   0  0  0  0  0  0  0  0  0  0  0  0
   18.8462  -10.9610   19.3438 H   0  0  0  0  0  0  0  0  0  0  0  0
   17.5378  -13.4467   18.4042 H   0  0  0  0  0  0  0  0  0  0  0  0
   14.6551  -10.9485   18.0322 H   0  0  0  0  0  0  0  0  0  0  0  0
   14.1122  -12.6508   17.9373 H   0  0  0  0  0  0  0  0  0  0  0  0
   15.5288  -11.6035   15.8542 H   0  0  0  0  0  0  0  0  0  0  0  0
   15.9410  -13.2241   16.4473 H   0  0  0  0  0  0  0  0  0  0  0  0
   18.0607  -12.0338   16.5813 H   0  0  0  0  0  0  0  0  0  0  0  0
   17.2827  -10.5970   17.2767 H   0  0  0  0  0  0  0  0  0  0  0  0
   15.9109  -10.3287   19.6360 H   0  0  0  0  0  0  0  0  0  0  0  0
   14.1497  -13.3242   20.9368 H   0  0  0  0  0  0  0  0  0  0  0  0
   12.3146  -13.1904   22.4312 H   0  0  0  0  0  0  0  0  0  0  0  0
   13.0556   -8.9464   22.9981 H   0  0  0  0  0  0  0  0  0  0  0  0
   14.9416   -9.1055   21.5006 H   0  0  0  0  0  0  0  0  0  0  0  0
    9.7481  -12.0077   24.5408 H   0  0  0  0  0  0  0  0  0  0  0  0
   11.6491   -9.0744   24.4570 H   0  0  0  0  0  0  0  0  0  0  0  0
   10.2830   -9.8666   25.1216 H   0  0  0  0  0  0  0  0  0  0  0  0
   17.5766  -10.4864   21.3255 H   0  0  0  0  0  0  0  0  0  0  0  0
   15.6422  -13.2589   19.4564 H   0  0  0  0  0  0  0  0  0  0  0  0
   10.6619  -12.8800   23.4024 H   0  0  0  0  0  0  0  0  0  0  0  0
  1  2  2  0  0  0  0
  2  3  1  0  0  0  0
  2 30  1  0  0  0  0
  3  4  1  0  0  0  0
  3 12  1  0  0  0  0
  4  5  1  0  0  0  0
  4 31  1  0  0  0  0
  4 32  1  0  0  0  0
  5  6  2  0  0  0  0
  5 11  1  0  0  0  0
  6  7  1  0  0  0  0
  6 33  1  0  0  0  0
  7  8  2  0  0  0  0
  7 34  1  0  0  0  0
  8  9  1  0  0  0  0
  8 10  1  0  0  0  0
 10 11  2  0  0  0  0
 10 35  1  0  0  0  0
 11 36  1  0  0  0  0
 12 13  2  0  0  0  0
 12 14  1  0  0  0  0
 14 15  1  0  0  0  0
 14 30  1  0  0  0  0
 14 37  1  6  0  0  0
 15 16  1  0  0  0  0
 15 19  1  0  0  0  0
 15 38  1  6  0  0  0
 16 17  1  0  0  0  0
 16 20  1  0  0  0  0
 16 54  1  1  0  0  0
 17 18  1  0  0  0  0
 17 39  1  0  0  0  0
 17 40  1  0  0  0  0
 18 19  1  0  0  0  0
 18 41  1  0  0  0  0
 18 42  1  0  0  0  0
 19 43  1  0  0  0  0
 19 44  1  0  0  0  0
 20 21  1  0  0  0  0
 20 30  1  0  0  0  0
 20 45  1  6  0  0  0
 21 22  2  0  0  0  0
 21 26  1  0  0  0  0
 22 23  1  0  0  0  0
 22 46  1  0  0  0  0
 23 24  2  0  0  0  0
 23 47  1  0  0  0  0
 24 25  1  0  0  0  0
 24 27  1  0  0  0  0
 25 26  2  0  0  0  0
 25 48  1  0  0  0  0
 26 49  1  0  0  0  0
 27 28  2  0  0  0  0
 27 29  1  0  0  0  0
 28 50  1  0  0  0  0
 28 55  1  0  0  0  0
 29 51  1  0  0  0  0
 29 52  1  0  0  0  0
 30 53  1  1  0  0  0
M  CHG  1  16   1
M  END
$$$$
