FTA
 OpenBabel04041916303D

 37 39  0  0  1  0  0  0  0  0999 V2000
    1.5155   11.1613   20.3446 N   0  0  0  0  0  0  0  0  0  0  0  0
    2.2768   10.1957   21.0142 C   0  0  0  0  0  0  0  0  0  0  0  0
    3.6797   10.1261   20.9184 C   0  0  0  0  0  0  0  0  0  0  0  0
    4.4089    9.1246   21.5247 C   0  0  0  0  0  0  0  0  0  0  0  0
    3.7571    8.1369   22.2677 C   0  0  0  0  0  0  0  0  0  0  0  0
    2.3765    8.1937   22.4006 C   0  0  0  0  0  0  0  0  0  0  0  0
    1.6425    9.2170   21.7884 C   0  0  0  0  0  0  0  0  0  0  0  0
    1.9292   12.3122   19.6562 C   0  0  0  0  0  0  0  0  0  0  0  0
    1.3018   12.6657   18.4584 C   0  0  0  0  0  0  0  0  0  0  0  0
    1.6708   13.8395   17.7955 C   0  0  0  0  0  0  0  0  0  0  0  0
    2.9988   13.0933   20.1054 C   0  0  0  0  0  0  0  0  0  0  0  0
    3.3918   14.2399   19.4253 C   0  0  0  0  0  0  0  0  0  0  0  0
    2.6720   14.6690   18.3187 C   0  0  0  0  0  0  0  0  0  0  0  0
    2.8643   15.9461   17.8186 N   0  0  0  0  0  0  0  0  0  0  0  0
    4.1935   16.3375   17.3046 C   0  0  0  0  0  0  0  0  0  0  0  0
    4.0048   17.5963   16.4250 C   0  0  1  0  0  0  0  0  0  0  0  0
    5.1554   18.4952   16.5285 C   0  0  0  0  0  0  0  0  0  0  0  0
    5.9865   19.2504   16.8062 N   0  0  0  0  0  0  0  0  0  0  0  0
    3.5491   17.2560   15.0560 C   0  0  0  0  0  0  0  0  0  0  0  0
    4.1599   17.6028   13.9069 N   0  0  0  0  0  0  0  0  0  0  0  0
    3.2393   17.3160   12.9503 N   0  0  0  0  0  0  0  0  0  0  0  0
    2.1476   16.7627   13.5238 N   0  0  0  0  0  0  0  0  0  0  0  0
    2.3336   16.6857   14.8573 N   0  0  0  0  0  0  0  0  0  0  0  0
    0.5121   11.0526   20.3953 H   0  0  0  0  0  0  0  0  0  0  0  0
    4.2215   10.8439   20.2957 H   0  0  0  0  0  0  0  0  0  0  0  0
    5.4873    9.0923   21.4105 H   0  0  0  0  0  0  0  0  0  0  0  0
    4.3296    7.3403   22.7341 H   0  0  0  0  0  0  0  0  0  0  0  0
    1.8596    7.4289   22.9763 H   0  0  0  0  0  0  0  0  0  0  0  0
    0.5644    9.2364   21.9160 H   0  0  0  0  0  0  0  0  0  0  0  0
    0.5180   12.0417   18.0371 H   0  0  0  0  0  0  0  0  0  0  0  0
    1.1596   14.1146   16.8730 H   0  0  0  0  0  0  0  0  0  0  0  0
    3.5021   12.8564   21.0358 H   0  0  0  0  0  0  0  0  0  0  0  0
    4.1907   14.8516   19.8257 H   0  0  0  0  0  0  0  0  0  0  0  0
    2.1113   16.2117   17.1749 H   0  0  0  0  0  0  0  0  0  0  0  0
    4.6907   15.5223   16.7660 H   0  0  0  0  0  0  0  0  0  0  0  0
    4.8165   16.5808   18.1646 H   0  0  0  0  0  0  0  0  0  0  0  0
    3.1724   18.1632   16.8559 H   0  0  0  0  0  0  0  0  0  0  0  0
  1  2  1  0  0  0  0
  1  8  1  0  0  0  0
  1 24  1  0  0  0  0
  2  3  2  0  0  0  0
  2  7  1  0  0  0  0
  3  4  1  0  0  0  0
  3 25  1  0  0  0  0
  4  5  2  0  0  0  0
  4 26  1  0  0  0  0
  5  6  1  0  0  0  0
  5 27  1  0  0  0  0
  6  7  2  0  0  0  0
  6 28  1  0  0  0  0
  7 29  1  0  0  0  0
  8  9  2  0  0  0  0
  8 11  1  0  0  0  0
  9 10  1  0  0  0  0
  9 30  1  0  0  0  0
 10 13  2  0  0  0  0
 10 31  1  0  0  0  0
 11 12  2  0  0  0  0
 11 32  1  0  0  0  0
 12 13  1  0  0  0  0
 12 33  1  0  0  0  0
 13 14  1  0  0  0  0
 14 15  1  0  0  0  0
 14 34  1  0  0  0  0
 15 16  1  0  0  0  0
 15 35  1  0  0  0  0
 15 36  1  0  0  0  0
 16 17  1  0  0  0  0
 16 19  1  0  0  0  0
 16 37  1  1  0  0  0
 17 18  3  0  0  0  0
 19 20  1  0  0  0  0
 19 23  2  0  0  0  0
 20 21  1  0  0  0  0
 21 22  2  0  0  0  0
 22 23  1  0  0  0  0
M  END
$$$$
