GDM
 OpenBabel04041917493D

 80 81  0  0  1  0  0  0  0  0999 V2000
   38.4305  -51.0028   68.1491 O   0  0  0  0  0  0  0  0  0  0  0  0
   37.6168  -47.4064   62.6409 O   0  0  0  0  0  0  0  0  0  0  0  0
   37.9624  -44.6983   63.2419 O   0  0  0  0  0  0  0  0  0  0  0  0
   38.9397  -43.2475   61.7413 O   0  0  0  0  0  0  0  0  0  0  0  0
   44.9373  -43.4777   64.4175 O   0  0  0  0  0  0  0  0  0  0  0  0
   45.4086  -46.2697   63.7327 O   0  0  0  0  0  0  0  0  0  0  0  0
   43.2240  -44.8079   68.5302 O   0  0  0  0  0  0  0  0  0  0  0  0
   40.6191  -44.5202   69.2574 O   0  0  0  0  0  0  0  0  0  0  0  0
   42.1452  -49.4582   68.1315 O   0  0  0  0  0  0  0  0  0  0  0  0
   39.5423  -49.1241   68.8112 N   0  0  0  0  0  0  0  0  0  0  0  0
   36.7268  -43.1787   62.2506 N   0  0  0  0  0  0  0  0  0  0  0  0
   39.2563  -50.0917   67.8689 C   0  0  0  0  0  0  0  0  0  0  0  0
   39.8793  -50.0570   66.5061 C   0  0  0  0  0  0  0  0  0  0  0  0
   39.7057  -48.9838   65.7153 C   0  0  0  0  0  0  0  0  0  0  0  0
   40.2849  -48.8031   64.3913 C   0  0  0  0  0  0  0  0  0  0  0  0
   39.8812  -47.9362   63.4558 C   0  0  0  0  0  0  0  0  0  0  0  0
   38.7119  -46.9909   63.5144 C   0  0  1  0  0  0  0  0  0  0  0  0
   39.1474  -45.5114   63.1791 C   0  0  2  0  0  0  0  0  0  0  0  0
   40.2383  -44.9078   64.1069 C   0  0  0  0  0  0  0  0  0  0  0  0
   41.4036  -44.4530   63.5774 C   0  0  0  0  0  0  0  0  0  0  0  0
   42.5541  -43.7759   64.2807 C   0  0  1  0  0  0  0  0  0  0  0  0
   43.9285  -44.3258   63.8503 C   0  0  2  0  0  0  0  0  0  0  0  0
   44.1559  -45.7947   64.2621 C   0  0  2  0  0  0  0  0  0  0  0  0
   44.2021  -45.9753   65.7897 C   0  0  0  0  0  0  0  0  0  0  0  0
   44.3739  -47.4250   66.2841 C   0  0  1  0  0  0  0  0  0  0  0  0
   44.1367  -47.5997   67.8007 C   0  0  0  0  0  0  0  0  0  0  0  0
   42.7736  -47.1894   68.2833 C   0  0  0  0  0  0  0  0  0  0  0  0
   42.4117  -45.9320   68.6035 C   0  0  0  0  0  0  0  0  0  0  0  0
   40.9788  -45.6552   68.9884 C   0  0  0  0  0  0  0  0  0  0  0  0
   40.0049  -46.7882   69.0754 C   0  0  0  0  0  0  0  0  0  0  0  0
   40.3931  -48.0266   68.7367 C   0  0  0  0  0  0  0  0  0  0  0  0
   41.7932  -48.2976   68.3639 C   0  0  0  0  0  0  0  0  0  0  0  0
   40.6566  -51.2822   66.1260 C   0  0  0  0  0  0  0  0  0  0  0  0
   37.8559  -48.5179   61.7754 C   0  0  0  0  0  0  0  0  0  0  0  0
   37.9549  -43.6721   62.3774 C   0  0  0  0  0  0  0  0  0  0  0  0
   39.9336  -44.8184   65.5788 C   0  0  0  0  0  0  0  0  0  0  0  0
   42.4774  -42.2850   63.9831 C   0  0  0  0  0  0  0  0  0  0  0  0
   45.3943  -46.4534   62.3215 C   0  0  0  0  0  0  0  0  0  0  0  0
   43.4552  -48.3500   65.5139 C   0  0  0  0  0  0  0  0  0  0  0  0
   44.5885  -44.8148   68.9363 C   0  0  0  0  0  0  0  0  0  0  0  0
   45.8100  -43.8102   64.1573 H   0  0  0  0  0  0  0  0  0  0  0  0
   39.1703  -49.3500   69.7274 H   0  0  0  0  0  0  0  0  0  0  0  0
   36.5468  -42.4080   61.6284 H   0  0  0  0  0  0  0  0  0  0  0  0
   35.9747  -43.5981   62.7836 H   0  0  0  0  0  0  0  0  0  0  0  0
   39.0924  -48.1754   66.0987 H   0  0  0  0  0  0  0  0  0  0  0  0
   41.1471  -49.4214   64.1382 H   0  0  0  0  0  0  0  0  0  0  0  0
   40.4188  -47.9318   62.5069 H   0  0  0  0  0  0  0  0  0  0  0  0
   38.3171  -46.9917   64.5387 H   0  0  0  0  0  0  0  0  0  0  0  0
   39.4827  -45.5088   62.1239 H   0  0  0  0  0  0  0  0  0  0  0  0
   41.5143  -44.5385   62.5026 H   0  0  0  0  0  0  0  0  0  0  0  0
   42.4777  -43.9165   65.3627 H   0  0  0  0  0  0  0  0  0  0  0  0
   43.9998  -44.2606   62.7601 H   0  0  0  0  0  0  0  0  0  0  0  0
   43.3274  -46.3871   63.8554 H   0  0  0  0  0  0  0  0  0  0  0  0
   43.2742  -45.5795   66.2001 H   0  0  0  0  0  0  0  0  0  0  0  0
   45.0422  -45.3907   66.1730 H   0  0  0  0  0  0  0  0  0  0  0  0
   45.4022  -47.7362   66.0658 H   0  0  0  0  0  0  0  0  0  0  0  0
   44.8946  -47.0695   68.3529 H   0  0  0  0  0  0  0  0  0  0  0  0
   44.3498  -48.6265   68.1081 H   0  0  0  0  0  0  0  0  0  0  0  0
   38.9810  -46.5437   69.3607 H   0  0  0  0  0  0  0  0  0  0  0  0
   40.6401  -52.0209   66.9350 H   0  0  0  0  0  0  0  0  0  0  0  0
   41.7012  -51.0167   65.9297 H   0  0  0  0  0  0  0  0  0  0  0  0
   40.2342  -51.7431   65.2267 H   0  0  0  0  0  0  0  0  0  0  0  0
   36.9718  -48.7287   61.1583 H   0  0  0  0  0  0  0  0  0  0  0  0
   38.0758  -49.4162   62.3625 H   0  0  0  0  0  0  0  0  0  0  0  0
   38.6922  -48.3049   61.1003 H   0  0  0  0  0  0  0  0  0  0  0  0
   40.7602  -44.3916   66.1611 H   0  0  0  0  0  0  0  0  0  0  0  0
   39.7437  -45.8164   65.9825 H   0  0  0  0  0  0  0  0  0  0  0  0
   39.0561  -44.1901   65.7558 H   0  0  0  0  0  0  0  0  0  0  0  0
   41.5082  -41.8850   64.2969 H   0  0  0  0  0  0  0  0  0  0  0  0
   42.5964  -42.1066   62.9070 H   0  0  0  0  0  0  0  0  0  0  0  0
   43.2631  -41.7353   64.5129 H   0  0  0  0  0  0  0  0  0  0  0  0
   46.3752  -46.8117   61.9928 H   0  0  0  0  0  0  0  0  0  0  0  0
   45.1943  -45.5119   61.8075 H   0  0  0  0  0  0  0  0  0  0  0  0
   44.6365  -47.1899   62.0406 H   0  0  0  0  0  0  0  0  0  0  0  0
   43.6166  -48.2446   64.4413 H   0  0  0  0  0  0  0  0  0  0  0  0
   42.4156  -48.1055   65.7343 H   0  0  0  0  0  0  0  0  0  0  0  0
   43.6514  -49.3900   65.7791 H   0  0  0  0  0  0  0  0  0  0  0  0
   45.0357  -43.8312   68.7784 H   0  0  0  0  0  0  0  0  0  0  0  0
   45.2173  -45.4449   68.3191 H   0  0  0  0  0  0  0  0  0  0  0  0
   44.6869  -45.0959   69.9865 H   0  0  0  0  0  0  0  0  0  0  0  0
  1 12  2  0  0  0  0
  2 17  1  0  0  0  0
  2 34  1  0  0  0  0
  3 18  1  0  0  0  0
  3 35  1  0  0  0  0
  4 35  2  0  0  0  0
  5 22  1  0  0  0  0
  5 41  1  0  0  0  0
  6 23  1  0  0  0  0
  6 38  1  0  0  0  0
  7 28  1  0  0  0  0
  7 40  1  0  0  0  0
  8 29  2  0  0  0  0
  9 32  2  0  0  0  0
 10 12  1  0  0  0  0
 10 31  1  0  0  0  0
 10 42  1  0  0  0  0
 11 35  1  0  0  0  0
 11 43  1  0  0  0  0
 11 44  1  0  0  0  0
 12 13  1  0  0  0  0
 13 14  2  0  0  0  0
 13 33  1  0  0  0  0
 14 15  1  0  0  0  0
 14 45  1  0  0  0  0
 15 16  2  0  0  0  0
 15 46  1  0  0  0  0
 16 17  1  0  0  0  0
 16 47  1  0  0  0  0
 17 18  1  0  0  0  0
 17 48  1  1  0  0  0
 18 19  1  0  0  0  0
 18 49  1  6  0  0  0
 19 20  2  0  0  0  0
 19 36  1  0  0  0  0
 20 21  1  0  0  0  0
 20 50  1  0  0  0  0
 21 22  1  0  0  0  0
 21 37  1  0  0  0  0
 21 51  1  1  0  0  0
 22 23  1  0  0  0  0
 22 52  1  6  0  0  0
 23 24  1  0  0  0  0
 23 53  1  6  0  0  0
 24 25  1  0  0  0  0
 24 54  1  0  0  0  0
 24 55  1  0  0  0  0
 25 26  1  0  0  0  0
 25 39  1  0  0  0  0
 25 56  1  6  0  0  0
 26 27  1  0  0  0  0
 26 57  1  0  0  0  0
 26 58  1  0  0  0  0
 27 28  2  0  0  0  0
 27 32  1  0  0  0  0
 28 29  1  0  0  0  0
 29 30  1  0  0  0  0
 30 31  2  0  0  0  0
 30 59  1  0  0  0  0
 31 32  1  0  0  0  0
 33 60  1  0  0  0  0
 33 61  1  0  0  0  0
 33 62  1  0  0  0  0
 34 63  1  0  0  0  0
 34 64  1  0  0  0  0
 34 65  1  0  0  0  0
 36 66  1  0  0  0  0
 36 67  1  0  0  0  0
 36 68  1  0  0  0  0
 37 69  1  0  0  0  0
 37 70  1  0  0  0  0
 37 71  1  0  0  0  0
 38 72  1  0  0  0  0
 38 73  1  0  0  0  0
 38 74  1  0  0  0  0
 39 75  1  0  0  0  0
 39 76  1  0  0  0  0
 39 77  1  0  0  0  0
 40 78  1  0  0  0  0
 40 79  1  0  0  0  0
 40 80  1  0  0  0  0
M  END
$$$$
