GDP
 OpenBabel04041914173D

 40 42  0  0  1  0  0  0  0  0999 V2000
   35.8668   31.5541  -20.0712 P   0  0  0  0  0  0  0  0  0  0  0  0
   35.6539   31.1634  -18.6133 O   0  0  0  0  0  0  0  0  0  0  0  0
   34.8823   32.5947  -20.6169 O   0  0  0  0  0  0  0  0  0  0  0  0
   37.3292   31.9540  -20.3391 O   0  0  0  0  0  0  0  0  0  0  0  0
   35.6741   30.2031  -20.9416 O   0  0  0  0  0  0  0  0  0  0  0  0
   34.7013   28.9355  -20.8969 P   0  0  2  0  0  0  0  0  0  0  0  0
   35.2669   27.8254  -21.7988 O   0  0  0  0  0  0  0  0  0  0  0  0
   33.2309   29.2261  -21.0755 O   0  0  0  0  0  0  0  0  0  0  0  0
   34.8888   28.3275  -19.3985 O   0  0  0  0  0  0  0  0  0  0  0  0
   36.1394   27.7789  -19.0389 C   0  0  0  0  0  0  0  0  0  0  0  0
   35.9257   26.3970  -18.4004 C   0  0  1  0  0  0  0  0  0  0  0  0
   34.8613   26.4188  -17.4025 O   0  0  0  0  0  0  0  0  0  0  0  0
   35.5797   25.2884  -19.4027 C   0  0  1  0  0  0  0  0  0  0  0  0
   36.1860   24.0289  -18.9758 O   0  0  0  0  0  0  0  0  0  0  0  0
   34.0766   25.1184  -19.2753 C   0  0  1  0  0  0  0  0  0  0  0  0
   33.6946   23.7638  -19.6197 O   0  0  0  0  0  0  0  0  0  0  0  0
   33.8885   25.4351  -17.7897 C   0  0  2  0  0  0  0  0  0  0  0  0
   32.5456   25.8301  -17.4145 N   0  3  0  0  0  0  0  0  0  0  0  0
   31.8201   26.9121  -17.8645 C   0  0  0  0  0  0  0  0  0  0  0  0
   30.5690   26.8825  -17.4308 N   0  0  0  0  0  0  0  0  0  0  0  0
   30.5043   25.7681  -16.6433 C   0  0  0  0  0  0  0  0  0  0  0  0
   29.4036   25.2144  -15.8881 C   0  0  0  0  0  0  0  0  0  0  0  0
   28.2466   25.6399  -15.8435 O   0  0  0  0  0  0  0  0  0  0  0  0
   29.7629   24.0714  -15.1905 N   0  3  0  0  0  0  0  0  0  0  0  0
   31.0077   23.4850  -15.2430 C   0  0  0  0  0  0  0  0  0  0  0  0
   31.1643   22.3369  -14.5305 N   0  0  0  0  0  0  0  0  0  0  0  0
   32.0120   23.9601  -15.9295 N   0  0  0  0  0  0  0  0  0  0  0  0
   31.7072   25.1034  -16.6017 C   0  0  0  0  0  0  0  0  0  0  0  0
   36.6226   28.4425  -18.3147 H   0  0  0  0  0  0  0  0  0  0  0  0
   36.8201   27.6899  -19.8930 H   0  0  0  0  0  0  0  0  0  0  0  0
   36.8436   26.1231  -17.8669 H   0  0  0  0  0  0  0  0  0  0  0  0
   35.9263   25.4709  -20.4226 H   0  0  0  0  0  0  0  0  0  0  0  0
   36.0771   23.4453  -19.7491 H   0  0  0  0  0  0  0  0  0  0  0  0
   33.5372   25.8128  -19.9203 H   0  0  0  0  0  0  0  0  0  0  0  0
   34.2226   23.1877  -19.0389 H   0  0  0  0  0  0  0  0  0  0  0  0
   34.1207   24.5412  -17.1950 H   0  0  0  0  0  0  0  0  0  0  0  0
   32.2511   27.6768  -18.5115 H   0  0  0  0  0  0  0  0  0  0  0  0
   29.0213   23.6498  -14.6720 H   0  0  0  0  0  0  0  0  0  0  0  0
   32.1398   22.1074  -14.3749 H   0  0  0  0  0  0  0  0  0  0  0  0
   30.5499   22.1680  -13.7532 H   0  0  0  0  0  0  0  0  0  0  0  0
  1  2  2  0  0  0  0
  1  3  1  0  0  0  0
  1  4  1  0  0  0  0
  1  5  1  0  0  0  0
  6  5  1  6  0  0  0
  6  7  2  0  0  0  0
  6  8  1  0  0  0  0
  6  9  1  0  0  0  0
  9 10  1  0  0  0  0
 10 11  1  0  0  0  0
 10 29  1  0  0  0  0
 10 30  1  0  0  0  0
 11 12  1  0  0  0  0
 11 13  1  0  0  0  0
 11 31  1  1  0  0  0
 12 17  1  0  0  0  0
 13 14  1  0  0  0  0
 13 15  1  0  0  0  0
 13 32  1  6  0  0  0
 14 33  1  0  0  0  0
 15 16  1  0  0  0  0
 15 17  1  0  0  0  0
 15 34  1  6  0  0  0
 16 35  1  0  0  0  0
 17 18  1  0  0  0  0
 17 36  1  1  0  0  0
 18 19  2  0  0  0  0
 18 28  1  0  0  0  0
 19 20  1  0  0  0  0
 19 37  1  0  0  0  0
 20 21  1  0  0  0  0
 21 22  1  0  0  0  0
 21 28  2  0  0  0  0
 22 23  2  0  0  0  0
 22 24  1  0  0  0  0
 24 25  1  0  0  0  0
 24 38  1  0  0  0  0
 25 26  1  0  0  0  0
 25 27  2  0  0  0  0
 26 39  1  0  0  0  0
 26 40  1  0  0  0  0
 27 28  1  0  0  0  0
M  CHG  2  18   1  24   1
M  END
$$$$
