GDP
 OpenBabel04041914423D

 40 42  0  0  1  0  0  0  0  0999 V2000
   17.9506   10.4718   18.4627 P   0  0  0  0  0  0  0  0  0  0  0  0
   18.6060   11.3134   17.3610 O   0  0  0  0  0  0  0  0  0  0  0  0
   18.8785   10.1303   19.6114 O   0  0  0  0  0  0  0  0  0  0  0  0
   16.6315   11.0107   19.0219 O   0  0  0  0  0  0  0  0  0  0  0  0
   17.5399    9.0195   17.8744 O   0  0  0  0  0  0  0  0  0  0  0  0
   17.9901    8.3250   16.5290 P   0  0  1  0  0  0  0  0  0  0  0  0
   17.2905    8.8643   15.3087 O   0  0  0  0  0  0  0  0  0  0  0  0
   19.4771    8.0765   16.3937 O   0  0  0  0  0  0  0  0  0  0  0  0
   17.2748    6.8367   16.7849 O   0  0  0  0  0  0  0  0  0  0  0  0
   17.6624    6.0491   17.8964 C   0  0  0  0  0  0  0  0  0  0  0  0
   17.4482    4.5690   17.5426 C   0  0  1  0  0  0  0  0  0  0  0  0
   16.0296    4.2858   17.3514 O   0  0  0  0  0  0  0  0  0  0  0  0
   18.1666    4.0978   16.2718 C   0  0  1  0  0  0  0  0  0  0  0  0
   18.6055    2.7517   16.5770 O   0  0  0  0  0  0  0  0  0  0  0  0
   17.0637    4.1335   15.2047 C   0  0  1  0  0  0  0  0  0  0  0  0
   17.2438    3.2569   14.0788 O   0  0  0  0  0  0  0  0  0  0  0  0
   15.8194    3.7761   16.0169 C   0  0  2  0  0  0  0  0  0  0  0  0
   14.5567    4.3190   15.4821 N   0  3  0  0  0  0  0  0  0  0  0  0
   14.3003    5.6681   15.1867 C   0  0  0  0  0  0  0  0  0  0  0  0
   13.0595    5.8035   14.7179 N   0  0  0  0  0  0  0  0  0  0  0  0
   12.4994    4.5200   14.7236 C   0  0  0  0  0  0  0  0  0  0  0  0
   11.1867    4.0254   14.3441 C   0  0  0  0  0  0  0  0  0  0  0  0
   10.2348    4.6659   13.9039 O   0  0  0  0  0  0  0  0  0  0  0  0
   10.9905    2.6139   14.4835 N   0  3  0  0  0  0  0  0  0  0  0  0
   11.9468    1.7500   14.9549 C   0  0  0  0  0  0  0  0  0  0  0  0
   11.5669    0.4086   15.0220 N   0  0  0  0  0  0  0  0  0  0  0  0
   13.1237    2.1977   15.2969 N   0  0  0  0  0  0  0  0  0  0  0  0
   13.3865    3.5774   15.1804 C   0  0  0  0  0  0  0  0  0  0  0  0
   17.0449    6.3221   18.7644 H   0  0  0  0  0  0  0  0  0  0  0  0
   18.7155    6.2192   18.1383 H   0  0  0  0  0  0  0  0  0  0  0  0
   17.7681    3.9466   18.3905 H   0  0  0  0  0  0  0  0  0  0  0  0
   19.0270    4.7214   15.9951 H   0  0  0  0  0  0  0  0  0  0  0  0
   19.0930    2.3966   15.8204 H   0  0  0  0  0  0  0  0  0  0  0  0
   16.9776    5.1540   14.8294 H   0  0  0  0  0  0  0  0  0  0  0  0
   18.0340    3.5516   13.5962 H   0  0  0  0  0  0  0  0  0  0  0  0
   15.7111    2.6785   16.0771 H   0  0  0  0  0  0  0  0  0  0  0  0
   15.0336    6.4884   15.3254 H   0  0  0  0  0  0  0  0  0  0  0  0
   10.0264    2.2826   14.1998 H   0  0  0  0  0  0  0  0  0  0  0  0
   12.2622   -0.2487   15.3696 H   0  0  0  0  0  0  0  0  0  0  0  0
   10.6770   -0.0357   14.7881 H   0  0  0  0  0  0  0  0  0  0  0  0
  1  2  2  0  0  0  0
  1  3  1  0  0  0  0
  1  4  1  0  0  0  0
  1  5  1  0  0  0  0
  6  5  1  1  0  0  0
  6  7  2  0  0  0  0
  6  8  1  0  0  0  0
  6  9  1  0  0  0  0
  9 10  1  0  0  0  0
 10 11  1  0  0  0  0
 10 29  1  0  0  0  0
 10 30  1  0  0  0  0
 11 12  1  0  0  0  0
 11 13  1  0  0  0  0
 11 31  1  1  0  0  0
 12 17  1  0  0  0  0
 13 14  1  0  0  0  0
 13 15  1  0  0  0  0
 13 32  1  6  0  0  0
 14 33  1  0  0  0  0
 15 16  1  0  0  0  0
 15 17  1  0  0  0  0
 15 34  1  6  0  0  0
 16 35  1  0  0  0  0
 17 18  1  0  0  0  0
 17 36  1  1  0  0  0
 18 19  2  0  0  0  0
 18 28  1  0  0  0  0
 19 20  1  0  0  0  0
 19 37  1  0  0  0  0
 20 21  1  0  0  0  0
 21 22  1  0  0  0  0
 21 28  2  0  0  0  0
 22 23  2  0  0  0  0
 22 24  1  0  0  0  0
 24 25  1  0  0  0  0
 24 38  1  0  0  0  0
 25 26  1  0  0  0  0
 25 27  2  0  0  0  0
 26 39  1  0  0  0  0
 26 40  1  0  0  0  0
 27 28  1  0  0  0  0
M  CHG  2  18   1  24   1
M  END
$$$$
