GIP
 OpenBabel04041916383D

 51 51  0  0  1  0  0  0  0  0999 V2000
    0.4027   -6.3572    3.2901 I   0  0  0  0  0  0  0  0  0  0  0  0
   -0.2901  -14.9192   14.4451 C   0  0  0  0  0  0  0  0  0  0  0  0
   -1.1984  -15.5403   15.0916 O   0  0  0  0  0  0  0  0  0  0  0  0
    0.4839  -14.0029   14.7943 O   0  0  0  0  0  0  0  0  0  0  0  0
   -0.5163  -16.9050   12.7876 N   0  3  0  0  0  0  0  0  0  0  0  0
   -0.0882  -15.4507   12.9799 C   0  0  1  0  0  0  0  0  0  0  0  0
   -0.8986  -14.6373   11.9552 C   0  0  0  0  0  0  0  0  0  0  0  0
    3.0133  -10.0902   10.1852 C   0  0  0  0  0  0  0  0  0  0  0  0
    1.8258   -9.1263    9.1603 S   0  0  0  0  0  0  0  0  0  0  0  0
   -0.4413  -13.1727   11.8162 C   0  0  0  0  0  0  0  0  0  0  0  0
    0.9064  -13.0221   11.1365 C   0  0  0  0  0  0  0  0  0  0  0  0
    1.5314  -14.0109   10.7142 O   0  0  0  0  0  0  0  0  0  0  0  0
    1.3877  -11.7565   10.9727 N   0  0  0  0  0  0  0  0  0  0  0  0
    2.6566  -11.5790   10.2539 C   0  0  2  0  0  0  0  0  0  0  0  0
    3.8592  -12.3184   10.9415 C   0  0  0  0  0  0  0  0  0  0  0  0
    4.0040  -12.3834   12.1615 O   0  0  0  0  0  0  0  0  0  0  0  0
    4.7871  -12.7949   10.0673 N   0  0  0  0  0  0  0  0  0  0  0  0
    6.0763  -13.4163   10.4449 C   0  0  0  0  0  0  0  0  0  0  0  0
    6.9194  -13.8004    9.2036 C   0  0  0  0  0  0  0  0  0  0  0  0
    6.5169  -13.2723    8.1282 O   0  0  0  0  0  0  0  0  0  0  0  0
    7.8655  -14.6072    9.3882 O   0  0  0  0  0  0  0  0  0  0  0  0
    1.4563   -6.4509    9.4585 N   0  0  0  0  0  0  0  0  0  0  0  0
    1.3606   -5.2671   10.2347 O   0  0  0  0  0  0  0  0  0  0  0  0
    1.6950   -7.6417   10.1259 C   0  0  0  0  0  0  0  0  0  0  0  0
    1.7539   -7.6804   11.3335 O   0  0  0  0  0  0  0  0  0  0  0  0
    1.2337   -6.3070    8.0867 C   0  0  0  0  0  0  0  0  0  0  0  0
    2.3018   -6.4409    7.1918 C   0  0  0  0  0  0  0  0  0  0  0  0
   -0.0823   -6.2267    7.6148 C   0  0  0  0  0  0  0  0  0  0  0  0
    2.0499   -6.4637    5.8166 C   0  0  0  0  0  0  0  0  0  0  0  0
   -0.3302   -6.2400    6.2347 C   0  0  0  0  0  0  0  0  0  0  0  0
    0.7395   -6.3574    5.3510 C   0  0  0  0  0  0  0  0  0  0  0  0
   -0.3611  -17.2091   11.8229 H   0  0  0  0  0  0  0  0  0  0  0  0
    0.0168  -17.4909   13.4405 H   0  0  0  0  0  0  0  0  0  0  0  0
    0.9764  -15.4412   12.7260 H   0  0  0  0  0  0  0  0  0  0  0  0
   -1.9545  -14.6492   12.2573 H   0  0  0  0  0  0  0  0  0  0  0  0
   -0.8478  -15.1269   10.9693 H   0  0  0  0  0  0  0  0  0  0  0  0
    4.0196   -9.9714    9.7692 H   0  0  0  0  0  0  0  0  0  0  0  0
    3.0141   -9.7034   11.2088 H   0  0  0  0  0  0  0  0  0  0  0  0
   -0.3893  -12.7081   12.8022 H   0  0  0  0  0  0  0  0  0  0  0  0
   -1.1813  -12.6271   11.2162 H   0  0  0  0  0  0  0  0  0  0  0  0
    0.8916  -10.9446   11.3180 H   0  0  0  0  0  0  0  0  0  0  0  0
    2.5415  -11.9948    9.2411 H   0  0  0  0  0  0  0  0  0  0  0  0
    4.6448  -12.7483    9.0575 H   0  0  0  0  0  0  0  0  0  0  0  0
    5.8769  -14.3018   11.0640 H   0  0  0  0  0  0  0  0  0  0  0  0
    6.6333  -12.7009   11.0670 H   0  0  0  0  0  0  0  0  0  0  0  0
    1.5560   -5.5797   11.1518 H   0  0  0  0  0  0  0  0  0  0  0  0
    3.3234   -6.5378    7.5573 H   0  0  0  0  0  0  0  0  0  0  0  0
   -0.9081   -6.1832    8.3194 H   0  0  0  0  0  0  0  0  0  0  0  0
    2.8715   -6.5592    5.1141 H   0  0  0  0  0  0  0  0  0  0  0  0
   -1.3472   -6.1521    5.8671 H   0  0  0  0  0  0  0  0  0  0  0  0
   -1.5065  -16.9788   13.0612 H   0  0  0  0  0  0  0  0  0  0  0  0
  1 31  1  0  0  0  0
  2  6  1  0  0  0  0
  2  4  2  0  0  0  0
  2  3  1  0  0  0  0
  5  6  1  0  0  0  0
  5 32  1  0  0  0  0
  5 33  1  0  0  0  0
  5 51  1  0  0  0  0
  6  7  1  0  0  0  0
  6 34  1  6  0  0  0
  7 10  1  0  0  0  0
  7 35  1  0  0  0  0
  7 36  1  0  0  0  0
  8 14  1  0  0  0  0
  8  9  1  0  0  0  0
  8 37  1  0  0  0  0
  8 38  1  0  0  0  0
  9 24  1  0  0  0  0
 10 11  1  0  0  0  0
 10 39  1  0  0  0  0
 10 40  1  0  0  0  0
 11 13  1  0  0  0  0
 11 12  2  0  0  0  0
 13 14  1  0  0  0  0
 13 41  1  0  0  0  0
 14 15  1  0  0  0  0
 14 42  1  6  0  0  0
 15 17  1  0  0  0  0
 15 16  2  0  0  0  0
 17 18  1  0  0  0  0
 17 43  1  0  0  0  0
 18 19  1  0  0  0  0
 18 44  1  0  0  0  0
 18 45  1  0  0  0  0
 19 21  2  0  0  0  0
 19 20  1  0  0  0  0
 22 24  1  0  0  0  0
 22 26  1  0  0  0  0
 22 23  1  0  0  0  0
 23 46  1  0  0  0  0
 24 25  2  0  0  0  0
 26 28  2  0  0  0  0
 26 27  1  0  0  0  0
 27 29  2  0  0  0  0
 27 47  1  0  0  0  0
 28 30  1  0  0  0  0
 28 48  1  0  0  0  0
 29 31  1  0  0  0  0
 29 49  1  0  0  0  0
 30 31  2  0  0  0  0
 30 50  1  0  0  0  0
M  CHG  1   5   1
M  END
$$$$
