GL1
 OpenBabel04041917533D

 27 27  0  0  1  0  0  0  0  0999 V2000
    4.8708   -3.8644   13.0466 C   0  0  1  0  0  0  0  0  0  0  0  0
    3.6986   -2.8494   13.0248 C   0  0  1  0  0  0  0  0  0  0  0  0
    3.9709   -1.7800   11.9581 C   0  0  2  0  0  0  0  0  0  0  0  0
    5.3229   -1.0920   12.1899 C   0  0  2  0  0  0  0  0  0  0  0  0
    6.4250   -2.1658   12.3241 C   0  0  1  0  0  0  0  0  0  0  0  0
    7.7871   -1.5443   12.6490 C   0  0  0  0  0  0  0  0  0  0  0  0
    5.0111   -4.4889   11.7984 O   0  0  0  0  0  0  0  0  0  0  0  0
    2.4137   -3.4256   12.7866 O   0  0  0  0  0  0  0  0  0  0  0  0
    2.9187   -0.7898   11.9158 O   0  0  0  0  0  0  0  0  0  0  0  0
    5.2549   -0.2253   13.3544 O   0  0  0  0  0  0  0  0  0  0  0  0
    6.0854   -3.1072   13.3601 O   0  0  0  0  0  0  0  0  0  0  0  0
    8.1388   -0.5934   11.6416 O   0  0  0  0  0  0  0  0  0  0  0  0
    4.3750   -6.0061   11.5789 P   0  0  0  0  0  0  0  0  0  0  0  0
    4.8484   -6.3836   10.2035 O   0  0  0  0  0  0  0  0  0  0  0  0
    4.9686   -6.8026   12.7179 O   0  0  0  0  0  0  0  0  0  0  0  0
    2.8812   -5.7553   11.6632 O   0  0  0  0  0  0  0  0  0  0  0  0
    4.7145   -4.5759   13.8703 H   0  0  0  0  0  0  0  0  0  0  0  0
    3.6332   -2.3546   13.9977 H   0  0  0  0  0  0  0  0  0  0  0  0
    3.9703   -2.2584   10.9685 H   0  0  0  0  0  0  0  0  0  0  0  0
    5.5512   -0.4188   11.3513 H   0  0  0  0  0  0  0  0  0  0  0  0
    6.5241   -2.6799   11.3582 H   0  0  0  0  0  0  0  0  0  0  0  0
    8.5680   -2.3077   12.6965 H   0  0  0  0  0  0  0  0  0  0  0  0
    7.7719   -1.0505   13.6248 H   0  0  0  0  0  0  0  0  0  0  0  0
    2.5199   -4.0592   12.0263 H   0  0  0  0  0  0  0  0  0  0  0  0
    2.8915   -0.3871   12.7981 H   0  0  0  0  0  0  0  0  0  0  0  0
    5.0910   -0.7922   14.1261 H   0  0  0  0  0  0  0  0  0  0  0  0
    8.9821   -0.2088   11.8909 H   0  0  0  0  0  0  0  0  0  0  0  0
  1  2  1  0  0  0  0
  1  7  1  0  0  0  0
  1 11  1  0  0  0  0
  1 17  1  1  0  0  0
  2  3  1  0  0  0  0
  2  8  1  0  0  0  0
  2 18  1  1  0  0  0
  3  4  1  0  0  0  0
  3  9  1  0  0  0  0
  3 19  1  6  0  0  0
  4  5  1  0  0  0  0
  4 10  1  0  0  0  0
  4 20  1  6  0  0  0
  5  6  1  0  0  0  0
  5 11  1  0  0  0  0
  5 21  1  6  0  0  0
  6 12  1  0  0  0  0
  6 22  1  0  0  0  0
  6 23  1  0  0  0  0
  7 13  1  0  0  0  0
  8 24  1  0  0  0  0
  9 25  1  0  0  0  0
 10 26  1  0  0  0  0
 12 27  1  0  0  0  0
 13 14  2  0  0  0  0
 13 15  1  0  0  0  0
 13 16  1  0  0  0  0
M  END
$$$$
