GLP
 OpenBabel04041915463D

 29 29  0  0  1  0  0  0  0  0999 V2000
   28.5894   16.1659   -4.4366 C   0  0  1  0  0  0  0  0  0  0  0  0
   28.9547   15.4742   -3.1296 C   0  0  1  0  0  0  0  0  0  0  0  0
   28.5153   16.3165   -1.9426 C   0  0  2  0  0  0  0  0  0  0  0  0
   29.1593   17.6979   -2.0260 C   0  0  1  0  0  0  0  0  0  0  0  0
   28.9018   18.3445   -3.4086 C   0  0  1  0  0  0  0  0  0  0  0  0
   29.8328   19.5439   -3.5913 C   0  0  0  0  0  0  0  0  0  0  0  0
   27.1755   16.1799   -4.5831 O   0  0  0  0  0  0  0  0  0  0  0  0
   28.2297   14.1514   -3.0347 N   0  3  0  0  0  0  0  0  0  0  0  0
   28.8686   15.5842   -0.7511 O   0  0  0  0  0  0  0  0  0  0  0  0
   28.5182   18.4773   -0.9968 O   0  0  0  0  0  0  0  0  0  0  0  0
   29.1003   17.4598   -4.5318 O   0  0  0  0  0  0  0  0  0  0  0  0
   31.1383   19.0075   -3.7336 O   0  0  0  0  0  0  0  0  0  0  0  0
   32.3824   19.8782   -3.1343 P   0  0  0  0  0  0  0  0  0  0  0  0
   32.3496   21.1467   -3.9655 O   0  0  0  0  0  0  0  0  0  0  0  0
   33.5527   18.9433   -3.3635 O   0  0  0  0  0  0  0  0  0  0  0  0
   31.9846   20.0290   -1.6580 O   0  0  0  0  0  0  0  0  0  0  0  0
   28.9856   15.5724   -5.2679 H   0  0  0  0  0  0  0  0  0  0  0  0
   30.0272   15.2430   -3.0600 H   0  0  0  0  0  0  0  0  0  0  0  0
   27.4229   16.4277   -1.9121 H   0  0  0  0  0  0  0  0  0  0  0  0
   30.2287   17.6176   -1.8112 H   0  0  0  0  0  0  0  0  0  0  0  0
   27.8580   18.6930   -3.4570 H   0  0  0  0  0  0  0  0  0  0  0  0
   29.7559   20.2366   -2.7550 H   0  0  0  0  0  0  0  0  0  0  0  0
   29.5850   20.0852   -4.5136 H   0  0  0  0  0  0  0  0  0  0  0  0
   27.0454   16.7364   -5.3790 H   0  0  0  0  0  0  0  0  0  0  0  0
   28.3891   13.7495   -2.0988 H   0  0  0  0  0  0  0  0  0  0  0  0
   27.2210   14.3421   -3.1387 H   0  0  0  0  0  0  0  0  0  0  0  0
   29.8245   15.7345   -0.5910 H   0  0  0  0  0  0  0  0  0  0  0  0
   29.0009   18.3013   -0.1747 H   0  0  0  0  0  0  0  0  0  0  0  0
   28.5244   13.5082   -3.7680 H   0  0  0  0  0  0  0  0  0  0  0  0
  1 11  1  0  0  0  0
  1  7  1  0  0  0  0
  1  2  1  0  0  0  0
  1 17  1  6  0  0  0
  2  8  1  0  0  0  0
  2  3  1  0  0  0  0
  2 18  1  1  0  0  0
  3  9  1  0  0  0  0
  3  4  1  0  0  0  0
  3 19  1  6  0  0  0
  4 10  1  0  0  0  0
  4  5  1  0  0  0  0
  4 20  1  1  0  0  0
  5 11  1  0  0  0  0
  5  6  1  0  0  0  0
  5 21  1  6  0  0  0
  6 12  1  0  0  0  0
  6 22  1  0  0  0  0
  6 23  1  0  0  0  0
  7 24  1  0  0  0  0
  8 25  1  0  0  0  0
  8 26  1  0  0  0  0
  8 29  1  0  0  0  0
  9 27  1  0  0  0  0
 10 28  1  0  0  0  0
 12 13  1  0  0  0  0
 13 16  2  0  0  0  0
 13 15  1  0  0  0  0
 13 14  1  0  0  0  0
M  CHG  1   8   1
M  END
$$$$
