GLU
 OpenBabel04041917383D

 18 17  0  0  1  0  0  0  0  0999 V2000
    6.4183   30.7219   29.7616 N   0  3  0  0  0  0  0  0  0  0  0  0
    5.5466   30.4756   28.5439 C   0  0  2  0  0  0  0  0  0  0  0  0
    4.9127   29.0543   28.5515 C   0  0  0  0  0  0  0  0  0  0  0  0
    3.9169   28.8728   27.8152 O   0  0  0  0  0  0  0  0  0  0  0  0
    6.3549   30.7520   27.2832 C   0  0  0  0  0  0  0  0  0  0  0  0
    7.5239   29.7913   27.0545 C   0  0  0  0  0  0  0  0  0  0  0  0
    8.1888   30.1419   25.7170 C   0  0  0  0  0  0  0  0  0  0  0  0
    8.8517   31.2176   25.7541 O   0  0  0  0  0  0  0  0  0  0  0  0
    8.0025   29.3269   24.7804 O   0  0  0  0  0  0  0  0  0  0  0  0
    5.4350   28.3309   29.4639 O   0  0  0  0  0  0  0  0  0  0  0  0
    6.8439   31.6465   29.7844 H   0  0  0  0  0  0  0  0  0  0  0  0
    5.8459   30.5089   30.5860 H   0  0  0  0  0  0  0  0  0  0  0  0
    4.7343   31.2060   28.6379 H   0  0  0  0  0  0  0  0  0  0  0  0
    6.7258   31.7851   27.3223 H   0  0  0  0  0  0  0  0  0  0  0  0
    5.6791   30.7051   26.4204 H   0  0  0  0  0  0  0  0  0  0  0  0
    7.1846   28.7518   27.0338 H   0  0  0  0  0  0  0  0  0  0  0  0
    8.2753   29.8811   27.8478 H   0  0  0  0  0  0  0  0  0  0  0  0
    7.1204   29.9684   29.7541 H   0  0  0  0  0  0  0  0  0  0  0  0
  1  2  1  0  0  0  0
  1 11  1  0  0  0  0
  1 12  1  0  0  0  0
  1 18  1  0  0  0  0
  2  3  1  0  0  0  0
  2  5  1  0  0  0  0
  2 13  1  1  0  0  0
  3  4  2  0  0  0  0
  3 10  1  0  0  0  0
  5  6  1  0  0  0  0
  5 14  1  0  0  0  0
  5 15  1  0  0  0  0
  6  7  1  0  0  0  0
  6 16  1  0  0  0  0
  6 17  1  0  0  0  0
  7  8  2  0  0  0  0
  7  9  1  0  0  0  0
M  CHG  1   1   1
M  END
$$$$
