GOX
 OpenBabel04041914243D

 26 26  0  0  1  0  0  0  0  0999 V2000
   46.8171  119.8560   52.8173 C   0  0  0  0  0  0  0  0  0  0  0  0
   46.1890  119.0191   52.0005 N   0  3  0  0  0  0  0  0  0  0  0  0
   45.4494  119.5934   50.9824 O   0  0  0  0  0  0  0  0  0  0  0  0
   47.7246  119.2373   53.8493 C   0  0  2  0  0  0  0  0  0  0  0  0
   47.1050  118.0763   54.4221 O   0  0  0  0  0  0  0  0  0  0  0  0
   48.2414  120.2694   54.8641 C   0  0  1  0  0  0  0  0  0  0  0  0
   49.3684  119.7012   55.5308 O   0  0  0  0  0  0  0  0  0  0  0  0
   48.6295  121.5501   54.0943 C   0  0  2  0  0  0  0  0  0  0  0  0
   49.3004  122.4610   54.9606 O   0  0  0  0  0  0  0  0  0  0  0  0
   47.3109  122.1473   53.5771 C   0  0  2  0  0  0  0  0  0  0  0  0
   46.6807  121.1485   52.6969 N   0  0  0  0  0  0  0  0  0  0  0  0
   47.4392  123.4574   52.7899 C   0  0  0  0  0  0  0  0  0  0  0  0
   48.1654  123.2511   51.5826 O   0  0  0  0  0  0  0  0  0  0  0  0
   45.0747  118.8351   50.4845 H   0  0  0  0  0  0  0  0  0  0  0  0
   48.6058  118.8491   53.3157 H   0  0  0  0  0  0  0  0  0  0  0  0
   46.4013  118.3412   55.0399 H   0  0  0  0  0  0  0  0  0  0  0  0
   47.4877  120.4850   55.6377 H   0  0  0  0  0  0  0  0  0  0  0  0
   49.6997  120.3483   56.1816 H   0  0  0  0  0  0  0  0  0  0  0  0
   49.3093  121.2890   53.2792 H   0  0  0  0  0  0  0  0  0  0  0  0
   49.6100  123.2283   54.4393 H   0  0  0  0  0  0  0  0  0  0  0  0
   46.6380  122.3422   54.4236 H   0  0  0  0  0  0  0  0  0  0  0  0
   46.1522  121.4711   51.8841 H   0  0  0  0  0  0  0  0  0  0  0  0
   47.8995  124.2573   53.3774 H   0  0  0  0  0  0  0  0  0  0  0  0
   46.4381  123.7989   52.4980 H   0  0  0  0  0  0  0  0  0  0  0  0
   49.0976  123.0570   51.7843 H   0  0  0  0  0  0  0  0  0  0  0  0
   46.2578  118.0023   52.1136 H   0  0  0  0  0  0  0  0  0  0  0  0
  1  2  2  0  0  0  0
  1  4  1  0  0  0  0
  1 11  1  0  0  0  0
  2  3  1  0  0  0  0
  2 26  1  0  0  0  0
  3 14  1  0  0  0  0
  4  5  1  0  0  0  0
  4  6  1  0  0  0  0
  4 15  1  6  0  0  0
  5 16  1  0  0  0  0
  6  7  1  0  0  0  0
  6  8  1  0  0  0  0
  6 17  1  1  0  0  0
  7 18  1  0  0  0  0
  8  9  1  0  0  0  0
  8 10  1  0  0  0  0
  8 19  1  6  0  0  0
  9 20  1  0  0  0  0
 10 11  1  0  0  0  0
 10 12  1  0  0  0  0
 10 21  1  1  0  0  0
 11 22  1  0  0  0  0
 12 13  1  0  0  0  0
 12 23  1  0  0  0  0
 12 24  1  0  0  0  0
 13 25  1  0  0  0  0
M  CHG  1   2   1
M  END
$$$$
