GTL
 OpenBabel04041917133D

 26 26  0  0  1  0  0  0  0  0999 V2000
  119.3452   38.7600   64.7281 C   0  0  0  0  0  0  0  0  0  0  0  0
  118.6407   38.9004   65.8276 N   0  3  0  0  0  0  0  0  0  0  0  0
  118.9200   37.6386   63.8171 C   0  0  2  0  0  0  0  0  0  0  0  0
  120.3885   39.5348   64.4368 N   0  0  0  0  0  0  0  0  0  0  0  0
  118.8664   39.9969   66.6331 O   0  0  0  0  0  0  0  0  0  0  0  0
  118.7248   36.4664   64.6196 O   0  0  0  0  0  0  0  0  0  0  0  0
  119.8877   37.4105   62.6414 C   0  0  1  0  0  0  0  0  0  0  0  0
  119.2093   36.6890   61.6080 O   0  0  0  0  0  0  0  0  0  0  0  0
  120.4205   38.7649   62.1142 C   0  0  1  0  0  0  0  0  0  0  0  0
  119.3112   39.6309   61.8183 O   0  0  0  0  0  0  0  0  0  0  0  0
  121.2620   39.3541   63.2463 C   0  0  1  0  0  0  0  0  0  0  0  0
  121.9155   40.7051   62.9242 C   0  0  0  0  0  0  0  0  0  0  0  0
  121.0311   41.7933   63.2022 O   0  0  0  0  0  0  0  0  0  0  0  0
  117.9273   37.8926   63.4207 H   0  0  0  0  0  0  0  0  0  0  0  0
  120.5951   40.3046   65.0582 H   0  0  0  0  0  0  0  0  0  0  0  0
  118.6054   40.7647   66.0733 H   0  0  0  0  0  0  0  0  0  0  0  0
  119.5835   36.0315   64.7793 H   0  0  0  0  0  0  0  0  0  0  0  0
  120.7202   36.7761   62.9638 H   0  0  0  0  0  0  0  0  0  0  0  0
  119.8071   36.5510   60.8514 H   0  0  0  0  0  0  0  0  0  0  0  0
  120.9949   38.6159   61.1979 H   0  0  0  0  0  0  0  0  0  0  0  0
  119.5981   40.3108   61.1819 H   0  0  0  0  0  0  0  0  0  0  0  0
  122.0532   38.6465   63.5189 H   0  0  0  0  0  0  0  0  0  0  0  0
  122.2745   40.7588   61.8928 H   0  0  0  0  0  0  0  0  0  0  0  0
  122.7802   40.8448   63.5800 H   0  0  0  0  0  0  0  0  0  0  0  0
  120.3267   41.8143   62.5328 H   0  0  0  0  0  0  0  0  0  0  0  0
  117.9825   38.1851   66.1385 H   0  0  0  0  0  0  0  0  0  0  0  0
  1  2  2  0  0  0  0
  1  3  1  0  0  0  0
  1  4  1  0  0  0  0
  2  5  1  0  0  0  0
  2 26  1  0  0  0  0
  3  6  1  0  0  0  0
  3  7  1  0  0  0  0
  3 14  1  6  0  0  0
  4 11  1  0  0  0  0
  4 15  1  0  0  0  0
  5 16  1  0  0  0  0
  6 17  1  0  0  0  0
  7  8  1  0  0  0  0
  7  9  1  0  0  0  0
  7 18  1  1  0  0  0
  8 19  1  0  0  0  0
  9 10  1  0  0  0  0
  9 11  1  0  0  0  0
  9 20  1  6  0  0  0
 10 21  1  0  0  0  0
 11 12  1  0  0  0  0
 11 22  1  1  0  0  0
 12 13  1  0  0  0  0
 12 23  1  0  0  0  0
 12 24  1  0  0  0  0
 13 25  1  0  0  0  0
M  CHG  1   2   1
M  END
$$$$
