GYP
 OpenBabel04041917303D

 27 27  0  0  1  0  0  0  0  0999 V2000
   51.0260   54.1336   66.4180 C   0  0  1  0  0  0  0  0  0  0  0  0
   51.6577   55.3790   65.7601 C   0  0  1  0  0  0  0  0  0  0  0  0
   51.6802   56.5368   66.7613 C   0  0  2  0  0  0  0  0  0  0  0  0
   50.2571   56.7951   67.2747 C   0  0  1  0  0  0  0  0  0  0  0  0
   49.7001   55.4961   67.8783 C   0  0  1  0  0  0  0  0  0  0  0  0
   48.2647   55.6460   68.4125 C   0  0  0  0  0  0  0  0  0  0  0  0
   51.4150   52.3505   67.9151 C   0  0  0  0  0  0  0  0  0  0  0  0
   51.8509   53.6311   67.4731 O   0  0  0  0  0  0  0  0  0  0  0  0
   52.9734   55.1349   65.2489 O   0  0  0  0  0  0  0  0  0  0  0  0
   52.1800   57.7164   66.1057 O   0  0  0  0  0  0  0  0  0  0  0  0
   50.2979   57.8696   68.2219 O   0  0  0  0  0  0  0  0  0  0  0  0
   49.7119   54.4425   66.9009 O   0  0  0  0  0  0  0  0  0  0  0  0
   47.3071   55.9596   67.4043 O   0  0  0  0  0  0  0  0  0  0  0  0
   50.9346   53.3578   65.6469 H   0  0  0  0  0  0  0  0  0  0  0  0
   51.0435   55.6749   64.9001 H   0  0  0  0  0  0  0  0  0  0  0  0
   52.3725   56.3341   67.5848 H   0  0  0  0  0  0  0  0  0  0  0  0
   49.6468   57.1330   66.4280 H   0  0  0  0  0  0  0  0  0  0  0  0
   50.3169   55.2020   68.7367 H   0  0  0  0  0  0  0  0  0  0  0  0
   48.2092   56.4163   69.1883 H   0  0  0  0  0  0  0  0  0  0  0  0
   47.9456   54.6993   68.8599 H   0  0  0  0  0  0  0  0  0  0  0  0
   52.1457   51.9659   68.6316 H   0  0  0  0  0  0  0  0  0  0  0  0
   51.3450   51.6458   67.0806 H   0  0  0  0  0  0  0  0  0  0  0  0
   50.4479   52.4317   68.4202 H   0  0  0  0  0  0  0  0  0  0  0  0
   53.3250   56.0176   65.0214 H   0  0  0  0  0  0  0  0  0  0  0  0
   52.1004   58.4251   66.7751 H   0  0  0  0  0  0  0  0  0  0  0  0
   49.3874   58.1834   68.3718 H   0  0  0  0  0  0  0  0  0  0  0  0
   47.5890   56.7467   66.9147 H   0  0  0  0  0  0  0  0  0  0  0  0
  1  2  1  0  0  0  0
  1  8  1  0  0  0  0
  1 12  1  0  0  0  0
  1 14  1  6  0  0  0
  2  3  1  0  0  0  0
  2  9  1  0  0  0  0
  2 15  1  6  0  0  0
  3  4  1  0  0  0  0
  3 10  1  0  0  0  0
  3 16  1  1  0  0  0
  4  5  1  0  0  0  0
  4 11  1  0  0  0  0
  4 17  1  6  0  0  0
  5  6  1  0  0  0  0
  5 12  1  0  0  0  0
  5 18  1  1  0  0  0
  6 13  1  0  0  0  0
  6 19  1  0  0  0  0
  6 20  1  0  0  0  0
  7  8  1  0  0  0  0
  7 21  1  0  0  0  0
  7 22  1  0  0  0  0
  7 23  1  0  0  0  0
  9 24  1  0  0  0  0
 10 25  1  0  0  0  0
 11 26  1  0  0  0  0
 13 27  1  0  0  0  0
M  END
$$$$
