H52
 OpenBabel04041916333D

 44 46  0  0  1  0  0  0  0  0999 V2000
    9.0846   11.2633    4.6916 O   0  0  0  0  0  0  0  0  0  0  0  0
    8.7814    9.8992    4.3379 S   0  0  0  0  0  0  0  0  0  0  0  0
    8.5674    8.8712    5.3325 O   0  0  0  0  0  0  0  0  0  0  0  0
   10.1447    9.3013    3.4514 N   0  0  0  0  0  0  0  0  0  0  0  0
   10.4952    7.8574    3.6475 C   0  0  1  0  0  0  0  0  0  0  0  0
    9.5269    6.9240    2.9478 C   0  0  0  0  0  0  0  0  0  0  0  0
   11.9378    7.5072    3.2590 C   0  0  0  0  0  0  0  0  0  0  0  0
   12.8895    8.2598    4.1467 N   0  3  0  0  0  0  0  0  0  0  0  0
   13.3550    9.5513    3.5761 C   0  0  0  0  0  0  0  0  0  0  0  0
   12.2529   10.6002    3.6071 C   0  0  0  0  0  0  0  0  0  0  0  0
   11.0458   10.2372    2.7422 C   0  0  0  0  0  0  0  0  0  0  0  0
    7.3831    9.9042    3.2066 C   0  0  0  0  0  0  0  0  0  0  0  0
    5.9929    9.8768    3.6398 C   0  0  0  0  0  0  0  0  0  0  0  0
    5.3836    9.9121    4.9544 C   0  0  0  0  0  0  0  0  0  0  0  0
    6.1045   10.0508    6.2601 C   0  0  0  0  0  0  0  0  0  0  0  0
    5.0541    9.8143    2.5699 C   0  0  0  0  0  0  0  0  0  0  0  0
    5.4320    9.8014    1.2211 C   0  0  0  0  0  0  0  0  0  0  0  0
    6.7659    9.8432    0.8652 C   0  0  0  0  0  0  0  0  0  0  0  0
    7.7277    9.8887    1.8494 C   0  0  0  0  0  0  0  0  0  0  0  0
    3.6768    9.7491    2.8385 C   0  0  0  0  0  0  0  0  0  0  0  0
    3.1256    9.7416    4.0609 N   0  0  0  0  0  0  0  0  0  0  0  0
    3.9865    9.8293    5.0809 C   0  0  0  0  0  0  0  0  0  0  0  0
   10.4413    7.6574    4.7232 H   0  0  0  0  0  0  0  0  0  0  0  0
    9.8267    5.8849    3.1288 H   0  0  0  0  0  0  0  0  0  0  0  0
    9.5019    7.0901    1.8678 H   0  0  0  0  0  0  0  0  0  0  0  0
    8.5120    7.0333    3.3404 H   0  0  0  0  0  0  0  0  0  0  0  0
   12.1775    7.7354    2.2163 H   0  0  0  0  0  0  0  0  0  0  0  0
   12.1381    6.4432    3.4259 H   0  0  0  0  0  0  0  0  0  0  0  0
   12.4494    8.4327    5.0660 H   0  0  0  0  0  0  0  0  0  0  0  0
   13.7070    9.3513    2.5584 H   0  0  0  0  0  0  0  0  0  0  0  0
   14.2122    9.8649    4.1800 H   0  0  0  0  0  0  0  0  0  0  0  0
   12.6866   11.5345    3.2297 H   0  0  0  0  0  0  0  0  0  0  0  0
   11.9387   10.7912    4.6401 H   0  0  0  0  0  0  0  0  0  0  0  0
   10.5139   11.1517    2.4618 H   0  0  0  0  0  0  0  0  0  0  0  0
   11.3729    9.7965    1.7901 H   0  0  0  0  0  0  0  0  0  0  0  0
    5.4049   10.0744    7.1064 H   0  0  0  0  0  0  0  0  0  0  0  0
    6.6724   10.9839    6.2944 H   0  0  0  0  0  0  0  0  0  0  0  0
    6.7222    9.1786    6.4568 H   0  0  0  0  0  0  0  0  0  0  0  0
    4.6848    9.7535    0.4285 H   0  0  0  0  0  0  0  0  0  0  0  0
    7.0448    9.8342   -0.1884 H   0  0  0  0  0  0  0  0  0  0  0  0
    8.7621    9.9056    1.5168 H   0  0  0  0  0  0  0  0  0  0  0  0
    2.9423    9.6955    2.0370 H   0  0  0  0  0  0  0  0  0  0  0  0
    3.5026    9.8355    6.0584 H   0  0  0  0  0  0  0  0  0  0  0  0
   13.7016    7.6603    4.3528 H   0  0  0  0  0  0  0  0  0  0  0  0
  1  2  2  0  0  0  0
  2  3  2  0  0  0  0
  2  4  1  0  0  0  0
  2 12  1  0  0  0  0
  4  5  1  0  0  0  0
  4 11  1  0  0  0  0
  5  6  1  0  0  0  0
  5  7  1  0  0  0  0
  5 23  1  1  0  0  0
  6 24  1  0  0  0  0
  6 25  1  0  0  0  0
  6 26  1  0  0  0  0
  7  8  1  0  0  0  0
  7 27  1  0  0  0  0
  7 28  1  0  0  0  0
  8  9  1  0  0  0  0
  8 29  1  0  0  0  0
  8 44  1  0  0  0  0
  9 10  1  0  0  0  0
  9 30  1  0  0  0  0
  9 31  1  0  0  0  0
 10 11  1  0  0  0  0
 10 32  1  0  0  0  0
 10 33  1  0  0  0  0
 11 34  1  0  0  0  0
 11 35  1  0  0  0  0
 12 13  2  0  0  0  0
 12 19  1  0  0  0  0
 13 14  1  0  0  0  0
 13 16  1  0  0  0  0
 14 15  1  0  0  0  0
 14 22  2  0  0  0  0
 15 36  1  0  0  0  0
 15 37  1  0  0  0  0
 15 38  1  0  0  0  0
 16 17  2  0  0  0  0
 16 20  1  0  0  0  0
 17 18  1  0  0  0  0
 17 39  1  0  0  0  0
 18 19  2  0  0  0  0
 18 40  1  0  0  0  0
 19 41  1  0  0  0  0
 20 21  2  0  0  0  0
 20 42  1  0  0  0  0
 21 22  1  0  0  0  0
 22 43  1  0  0  0  0
M  CHG  1   8   1
M  END
$$$$
