HA1
 OpenBabel04041917203D

 34 35  0  0  0  0  0  0  0  0999 V2000
   72.3579   46.5305   50.0662 N   0  3  0  0  0  0  0  0  0  0  0  0
   71.1072   47.0329   50.3333 C   0  0  0  0  0  0  0  0  0  0  0  0
   71.0295   48.3349   50.0907 N   0  0  0  0  0  0  0  0  0  0  0  0
   72.2979   48.6643   49.6513 C   0  0  0  0  0  0  0  0  0  0  0  0
   72.8232   49.9596   49.2312 C   0  0  0  0  0  0  0  0  0  0  0  0
   72.2033   51.0054   49.1907 O   0  0  0  0  0  0  0  0  0  0  0  0
   74.1717   49.8734   48.8638 N   0  3  0  0  0  0  0  0  0  0  0  0
   74.9370   48.7213   48.8881 C   0  0  0  0  0  0  0  0  0  0  0  0
   76.2368   48.8538   48.4973 N   0  0  0  0  0  0  0  0  0  0  0  0
   74.4637   47.5530   49.2662 N   0  0  0  0  0  0  0  0  0  0  0  0
   73.1471   47.5761   49.6300 C   0  0  0  0  0  0  0  0  0  0  0  0
   72.6818   45.1309   50.2134 C   0  0  0  0  0  0  0  0  0  0  0  0
   73.4148   44.8367   51.5172 C   0  0  0  0  0  0  0  0  0  0  0  0
   74.3535   43.6522   51.3487 C   0  0  0  0  0  0  0  0  0  0  0  0
   73.6236   42.4165   50.8655 C   0  0  0  0  0  0  0  0  0  0  0  0
   74.4943   41.2013   51.0408 C   0  0  0  0  0  0  0  0  0  0  0  0
   74.5193   40.7841   52.3323 F   0  0  0  0  0  0  0  0  0  0  0  0
   75.7715   41.4110   50.6334 F   0  0  0  0  0  0  0  0  0  0  0  0
   73.8627   39.7993   50.0248 P   0  0  0  0  0  0  0  0  0  0  0  0
   72.3646   39.7741   50.3602 O   0  0  0  0  0  0  0  0  0  0  0  0
   74.1550   40.2546   48.5913 O   0  0  0  0  0  0  0  0  0  0  0  0
   74.6502   38.5748   50.4935 O   0  0  0  0  0  0  0  0  0  0  0  0
   70.3006   46.4088   50.6934 H   0  0  0  0  0  0  0  0  0  0  0  0
   74.5766   50.7323   48.5650 H   0  0  0  0  0  0  0  0  0  0  0  0
   76.8376   48.0334   48.4912 H   0  0  0  0  0  0  0  0  0  0  0  0
   76.6497   49.7218   48.1894 H   0  0  0  0  0  0  0  0  0  0  0  0
   73.2703   44.8346   49.3372 H   0  0  0  0  0  0  0  0  0  0  0  0
   71.7420   44.5629   50.1881 H   0  0  0  0  0  0  0  0  0  0  0  0
   72.6923   44.6192   52.3163 H   0  0  0  0  0  0  0  0  0  0  0  0
   73.9937   45.7065   51.8405 H   0  0  0  0  0  0  0  0  0  0  0  0
   74.8539   43.4347   52.2971 H   0  0  0  0  0  0  0  0  0  0  0  0
   75.1317   43.9088   50.6180 H   0  0  0  0  0  0  0  0  0  0  0  0
   73.3517   42.5199   49.8062 H   0  0  0  0  0  0  0  0  0  0  0  0
   72.6889   42.2662   51.4190 H   0  0  0  0  0  0  0  0  0  0  0  0
  1  2  2  0  0  0  0
  1 11  1  0  0  0  0
  1 12  1  0  0  0  0
  2  3  1  0  0  0  0
  2 23  1  0  0  0  0
  3  4  1  0  0  0  0
  4  5  1  0  0  0  0
  4 11  2  0  0  0  0
  5  6  2  0  0  0  0
  5  7  1  0  0  0  0
  7  8  1  0  0  0  0
  7 24  1  0  0  0  0
  8  9  1  0  0  0  0
  8 10  2  0  0  0  0
  9 25  1  0  0  0  0
  9 26  1  0  0  0  0
 10 11  1  0  0  0  0
 12 13  1  0  0  0  0
 12 27  1  0  0  0  0
 12 28  1  0  0  0  0
 13 14  1  0  0  0  0
 13 29  1  0  0  0  0
 13 30  1  0  0  0  0
 14 15  1  0  0  0  0
 14 31  1  0  0  0  0
 14 32  1  0  0  0  0
 15 16  1  0  0  0  0
 15 33  1  0  0  0  0
 15 34  1  0  0  0  0
 16 17  1  0  0  0  0
 16 18  1  0  0  0  0
 16 19  1  0  0  0  0
 19 20  2  0  0  0  0
 19 21  1  0  0  0  0
 19 22  1  0  0  0  0
M  CHG  2   1   1   7   1
M  END
$$$$
