HAL
 OpenBabel04041915453D

 60 61  0  0  1  0  0  0  0  0999 V2000
   30.5160  -39.0100   42.2561 C   0  0  0  0  0  0  0  0  0  0  0  0
   30.7505  -38.3174   41.0594 C   0  0  0  0  0  0  0  0  0  0  0  0
   30.8877  -36.9285   41.0567 C   0  0  0  0  0  0  0  0  0  0  0  0
   30.7959  -36.2148   42.2506 C   0  0  0  0  0  0  0  0  0  0  0  0
   30.5605  -36.8895   43.4468 C   0  0  0  0  0  0  0  0  0  0  0  0
   30.4185  -38.2783   43.4500 C   0  0  0  0  0  0  0  0  0  0  0  0
   30.3062  -40.5068   42.2490 C   0  0  0  0  0  0  0  0  0  0  0  0
   28.8309  -40.8481   42.0748 C   0  0  0  0  0  0  0  0  0  0  0  0
   28.5587  -42.2656   42.0622 N   0  0  0  0  0  0  0  0  0  0  0  0
   27.2568  -42.7157   42.1386 C   0  0  0  0  0  0  0  0  0  0  0  0
   26.2997  -41.9379   42.3002 O   0  0  0  0  0  0  0  0  0  0  0  0
   27.0361  -44.2089   41.9937 C   0  0  0  0  0  0  0  0  0  0  0  0
   28.1300  -44.9963   42.3732 O   0  0  0  0  0  0  0  0  0  0  0  0
   29.1810  -45.4148   41.2155 P   0  0  2  0  0  0  0  0  0  0  0  0
   30.3449  -44.4540   41.3540 O   0  0  0  0  0  0  0  0  0  0  0  0
   28.4594  -45.5575   39.8967 O   0  0  0  0  0  0  0  0  0  0  0  0
   29.6179  -47.0913   41.8474 C   0  0  1  0  0  0  0  0  0  0  0  0
   30.7121  -47.6900   40.9739 C   0  0  0  0  0  0  0  0  0  0  0  0
   31.1141  -49.0680   41.4312 C   0  0  0  0  0  0  0  0  0  0  0  0
   30.3619  -50.1865   41.0519 C   0  0  0  0  0  0  0  0  0  0  0  0
   30.6879  -51.4471   41.5487 C   0  0  0  0  0  0  0  0  0  0  0  0
   31.7519  -51.5923   42.4362 C   0  0  0  0  0  0  0  0  0  0  0  0
   32.4908  -50.4801   42.8350 C   0  0  0  0  0  0  0  0  0  0  0  0
   32.1744  -49.2224   42.3343 C   0  0  0  0  0  0  0  0  0  0  0  0
   30.0330  -47.0007   43.2532 N   0  0  0  0  0  0  0  0  0  0  0  0
   29.3120  -47.6296   44.2383 C   0  0  0  0  0  0  0  0  0  0  0  0
   28.2596  -48.2274   44.0262 O   0  0  0  0  0  0  0  0  0  0  0  0
   29.9297  -47.5515   45.6223 C   0  0  0  0  0  0  0  0  0  0  0  0
   30.5402  -48.8826   46.0696 C   0  0  0  0  0  0  0  0  0  0  0  0
   29.5056  -49.9938   46.2472 C   0  0  0  0  0  0  0  0  0  0  0  0
   30.1423  -51.3523   46.5444 C   0  0  0  0  0  0  0  0  0  0  0  0
   30.9507  -51.7941   45.6807 O   0  0  0  0  0  0  0  0  0  0  0  0
   29.7755  -51.8853   47.6287 O   0  0  0  0  0  0  0  0  0  0  0  0
   30.8123  -38.8645   40.1206 H   0  0  0  0  0  0  0  0  0  0  0  0
   31.0519  -36.4025   40.1207 H   0  0  0  0  0  0  0  0  0  0  0  0
   30.8896  -35.1321   42.2453 H   0  0  0  0  0  0  0  0  0  0  0  0
   30.4715  -36.3349   44.3765 H   0  0  0  0  0  0  0  0  0  0  0  0
   30.2192  -38.7942   44.3876 H   0  0  0  0  0  0  0  0  0  0  0  0
   30.6915  -40.9377   43.1798 H   0  0  0  0  0  0  0  0  0  0  0  0
   30.8999  -40.9589   41.4420 H   0  0  0  0  0  0  0  0  0  0  0  0
   28.4364  -40.4277   41.1417 H   0  0  0  0  0  0  0  0  0  0  0  0
   28.2451  -40.4046   42.8917 H   0  0  0  0  0  0  0  0  0  0  0  0
   29.2766  -42.9408   41.7515 H   0  0  0  0  0  0  0  0  0  0  0  0
   26.7172  -44.4149   40.9668 H   0  0  0  0  0  0  0  0  0  0  0  0
   26.2091  -44.4965   42.6519 H   0  0  0  0  0  0  0  0  0  0  0  0
   28.7057  -47.6967   41.7761 H   0  0  0  0  0  0  0  0  0  0  0  0
   31.5903  -47.0328   40.9720 H   0  0  0  0  0  0  0  0  0  0  0  0
   30.3700  -47.7353   39.9332 H   0  0  0  0  0  0  0  0  0  0  0  0
   29.4886  -50.0675   40.4171 H   0  0  0  0  0  0  0  0  0  0  0  0
   30.0777  -52.3071   41.2944 H   0  0  0  0  0  0  0  0  0  0  0  0
   31.9585  -52.5576   42.8890 H   0  0  0  0  0  0  0  0  0  0  0  0
   33.2590  -50.5905   43.5950 H   0  0  0  0  0  0  0  0  0  0  0  0
   32.7048  -48.3497   42.7062 H   0  0  0  0  0  0  0  0  0  0  0  0
   30.6941  -46.2696   43.4778 H   0  0  0  0  0  0  0  0  0  0  0  0
   29.1526  -47.2179   46.3193 H   0  0  0  0  0  0  0  0  0  0  0  0
   30.7114  -46.7814   45.6316 H   0  0  0  0  0  0  0  0  0  0  0  0
   31.0496  -48.7263   47.0310 H   0  0  0  0  0  0  0  0  0  0  0  0
   31.3157  -49.1891   45.3601 H   0  0  0  0  0  0  0  0  0  0  0  0
   28.9069  -50.1266   45.3414 H   0  0  0  0  0  0  0  0  0  0  0  0
   28.8104  -49.7192   47.0504 H   0  0  0  0  0  0  0  0  0  0  0  0
  1  2  2  0  0  0  0
  1  6  1  0  0  0  0
  1  7  1  0  0  0  0
  2  3  1  0  0  0  0
  2 34  1  0  0  0  0
  3  4  2  0  0  0  0
  3 35  1  0  0  0  0
  4  5  1  0  0  0  0
  4 36  1  0  0  0  0
  5  6  2  0  0  0  0
  5 37  1  0  0  0  0
  6 38  1  0  0  0  0
  7  8  1  0  0  0  0
  7 39  1  0  0  0  0
  7 40  1  0  0  0  0
  8  9  1  0  0  0  0
  8 41  1  0  0  0  0
  8 42  1  0  0  0  0
  9 10  1  0  0  0  0
  9 43  1  0  0  0  0
 10 11  2  0  0  0  0
 10 12  1  0  0  0  0
 12 13  1  0  0  0  0
 12 44  1  0  0  0  0
 12 45  1  0  0  0  0
 14 13  1  1  0  0  0
 14 15  2  0  0  0  0
 14 16  1  0  0  0  0
 14 17  1  0  0  0  0
 17 18  1  0  0  0  0
 17 25  1  0  0  0  0
 17 46  1  6  0  0  0
 18 19  1  0  0  0  0
 18 47  1  0  0  0  0
 18 48  1  0  0  0  0
 19 20  2  0  0  0  0
 19 24  1  0  0  0  0
 20 21  1  0  0  0  0
 20 49  1  0  0  0  0
 21 22  2  0  0  0  0
 21 50  1  0  0  0  0
 22 23  1  0  0  0  0
 22 51  1  0  0  0  0
 23 24  2  0  0  0  0
 23 52  1  0  0  0  0
 24 53  1  0  0  0  0
 25 26  1  0  0  0  0
 25 54  1  0  0  0  0
 26 27  2  0  0  0  0
 26 28  1  0  0  0  0
 28 29  1  0  0  0  0
 28 55  1  0  0  0  0
 28 56  1  0  0  0  0
 29 30  1  0  0  0  0
 29 57  1  0  0  0  0
 29 58  1  0  0  0  0
 30 31  1  0  0  0  0
 30 59  1  0  0  0  0
 30 60  1  0  0  0  0
 31 32  2  0  0  0  0
 31 33  1  0  0  0  0
M  END
$$$$
