HBB
 OpenBabel04041917533D

 83 85  0  0  1  0  0  0  0  0999 V2000
    5.6748   -0.2275   14.3280 C   0  0  2  0  0  0  0  0  0  0  0  0
    7.0783    0.3870   14.2386 C   0  0  0  0  0  0  0  0  0  0  0  0
    7.3467    1.0834   12.9418 C   0  0  0  0  0  0  0  0  0  0  0  0
    7.7532    1.0202   10.5519 C   0  0  0  0  0  0  0  0  0  0  0  0
    7.6120    0.3622   11.7723 C   0  0  0  0  0  0  0  0  0  0  0  0
    6.3073    3.0854    8.7843 C   0  0  0  0  0  0  0  0  0  0  0  0
    5.4961    4.2484    9.3608 C   0  0  0  0  0  0  0  0  0  0  0  0
    4.0077    3.9545    9.4499 C   0  0  0  0  0  0  0  0  0  0  0  0
    3.5882    3.4478   10.8335 C   0  0  0  0  0  0  0  0  0  0  0  0
    2.9662    1.4784   12.1852 C   0  0  1  0  0  0  0  0  0  0  0  0
    0.5478    2.0715   11.8739 C   0  0  0  0  0  0  0  0  0  0  0  0
    3.9232    0.3523   12.6592 C   0  0  0  0  0  0  0  0  0  0  0  0
    6.3558   -2.8094   15.8877 N   0  0  0  0  0  0  0  0  0  0  0  0
    5.6905   -3.6560   16.8690 C   0  0  0  0  0  0  0  0  0  0  0  0
    2.9203   -2.8589   16.3254 C   0  0  0  0  0  0  0  0  0  0  0  0
    2.5620   -5.0485   15.2364 C   0  0  0  0  0  0  0  0  0  0  0  0
    8.5410   -4.5160   15.8287 C   0  0  0  0  0  0  0  0  0  0  0  0
    7.2550    2.4747   12.8769 C   0  0  0  0  0  0  0  0  0  0  0  0
    7.4027    3.1298   11.6646 C   0  0  0  0  0  0  0  0  0  0  0  0
    7.6226    2.4016   10.5017 C   0  0  0  0  0  0  0  0  0  0  0  0
    7.6504    3.0592    9.2965 O   0  0  0  0  0  0  0  0  0  0  0  0
    3.4362    4.1936   11.7718 O   0  0  0  0  0  0  0  0  0  0  0  0
    3.4026    2.0864   10.9189 N   0  0  0  0  0  0  0  0  0  0  0  0
    1.5375    0.9255   12.0615 C   0  0  0  0  0  0  0  0  0  0  0  0
    1.1431    0.1349   13.3053 C   0  0  0  0  0  0  0  0  0  0  0  0
    3.9647   -0.7350   12.1413 O   0  0  0  0  0  0  0  0  0  0  0  0
    4.6731    0.6887   13.7669 N   0  0  0  0  0  0  0  0  0  0  0  0
    5.3334   -0.5487   15.7938 C   0  0  2  0  0  0  0  0  0  0  0  0
    5.2543    0.6739   16.5523 O   0  0  0  0  0  0  0  0  0  0  0  0
    6.3908   -1.4560   16.4254 C   0  0  0  0  0  0  0  0  0  0  0  0
    4.7812   -4.5640   16.1194 C   0  0  0  0  0  0  0  0  0  0  0  0
    3.3017   -4.3254   16.3502 C   0  0  0  0  0  0  0  0  0  0  0  0
    7.5014   -3.4851   14.8183 S   0  0  0  0  0  0  0  0  0  0  0  0
    8.3554   -2.4894   14.2854 O   0  0  0  0  0  0  0  0  0  0  0  0
    6.8380   -4.3885   13.8610 O   0  0  0  0  0  0  0  0  0  0  0  0
    9.6720   -3.9542   16.4127 C   0  0  0  0  0  0  0  0  0  0  0  0
   10.5137   -4.7531   17.1738 C   0  0  0  0  0  0  0  0  0  0  0  0
   10.2372   -6.1129   17.3287 C   0  0  0  0  0  0  0  0  0  0  0  0
    9.1095   -6.6727   16.7245 C   0  0  0  0  0  0  0  0  0  0  0  0
    8.2643   -5.8725   15.9613 C   0  0  0  0  0  0  0  0  0  0  0  0
    5.6530   -1.1671   13.7669 H   0  0  0  0  0  0  0  0  0  0  0  0
    7.8248   -0.3896   14.3725 H   0  0  0  0  0  0  0  0  0  0  0  0
    7.2193    1.0924   15.0669 H   0  0  0  0  0  0  0  0  0  0  0  0
    7.9414    0.4543    9.6463 H   0  0  0  0  0  0  0  0  0  0  0  0
    7.6984   -0.7207   11.8086 H   0  0  0  0  0  0  0  0  0  0  0  0
    6.3701    3.1846    7.6922 H   0  0  0  0  0  0  0  0  0  0  0  0
    5.8168    2.1313    9.0046 H   0  0  0  0  0  0  0  0  0  0  0  0
    5.6421    5.1260    8.7213 H   0  0  0  0  0  0  0  0  0  0  0  0
    5.8601    4.5147   10.3462 H   0  0  0  0  0  0  0  0  0  0  0  0
    3.7209    3.2267    8.6904 H   0  0  0  0  0  0  0  0  0  0  0  0
    3.4471    4.8812    9.2758 H   0  0  0  0  0  0  0  0  0  0  0  0
    2.9658    2.2530   12.9523 H   0  0  0  0  0  0  0  0  0  0  0  0
   -0.4759    1.6910   11.7985 H   0  0  0  0  0  0  0  0  0  0  0  0
    0.7793    2.6227   10.9595 H   0  0  0  0  0  0  0  0  0  0  0  0
    0.5991    2.7652   12.7218 H   0  0  0  0  0  0  0  0  0  0  0  0
    5.1322   -3.0300   17.5670 H   0  0  0  0  0  0  0  0  0  0  0  0
    6.4362   -4.1553   17.4868 H   0  0  0  0  0  0  0  0  0  0  0  0
    1.8533   -2.7244   16.4921 H   0  0  0  0  0  0  0  0  0  0  0  0
    3.1774   -2.4238   15.3549 H   0  0  0  0  0  0  0  0  0  0  0  0
    3.4339   -2.3117   17.1187 H   0  0  0  0  0  0  0  0  0  0  0  0
    2.8270   -6.1095   15.2407 H   0  0  0  0  0  0  0  0  0  0  0  0
    2.8405   -4.6258   14.2609 H   0  0  0  0  0  0  0  0  0  0  0  0
    1.4837   -4.9462   15.3655 H   0  0  0  0  0  0  0  0  0  0  0  0
    7.0519    3.0562   13.7705 H   0  0  0  0  0  0  0  0  0  0  0  0
    7.3133    4.2108   11.6271 H   0  0  0  0  0  0  0  0  0  0  0  0
    3.5641    1.5046   10.1087 H   0  0  0  0  0  0  0  0  0  0  0  0
    1.4684    0.2536   11.1972 H   0  0  0  0  0  0  0  0  0  0  0  0
    1.8279   -0.7036   13.4597 H   0  0  0  0  0  0  0  0  0  0  0  0
    0.1345   -0.2731   13.1946 H   0  0  0  0  0  0  0  0  0  0  0  0
    1.1742    0.7777   14.1910 H   0  0  0  0  0  0  0  0  0  0  0  0
    4.5933    1.6151   14.1611 H   0  0  0  0  0  0  0  0  0  0  0  0
    4.3433   -0.9873   15.8349 H   0  0  0  0  0  0  0  0  0  0  0  0
    5.0288    0.4600   17.4751 H   0  0  0  0  0  0  0  0  0  0  0  0
    7.3743   -1.0300   16.3774 H   0  0  0  0  0  0  0  0  0  0  0  0
    6.1580   -1.5257   17.4988 H   0  0  0  0  0  0  0  0  0  0  0  0
    5.0396   -5.5789   16.3992 H   0  0  0  0  0  0  0  0  0  0  0  0
    4.9680   -4.4371   15.0574 H   0  0  0  0  0  0  0  0  0  0  0  0
    3.0146   -4.7454   17.3166 H   0  0  0  0  0  0  0  0  0  0  0  0
    9.8976   -2.8995   16.2797 H   0  0  0  0  0  0  0  0  0  0  0  0
   11.3918   -4.3226   17.6450 H   0  0  0  0  0  0  0  0  0  0  0  0
   10.9032   -6.7393   17.9214 H   0  0  0  0  0  0  0  0  0  0  0  0
    8.8956   -7.7260   16.8446 H   0  0  0  0  0  0  0  0  0  0  0  0
    7.3895   -6.3083   15.4820 H   0  0  0  0  0  0  0  0  0  0  0  0
  1  2  1  0  0  0  0
  1 27  1  0  0  0  0
  1 28  1  0  0  0  0
  1 41  1  6  0  0  0
  2  3  1  0  0  0  0
  2 42  1  0  0  0  0
  2 43  1  0  0  0  0
  3  5  2  0  0  0  0
  3 18  1  0  0  0  0
  4  5  1  0  0  0  0
  4 20  2  0  0  0  0
  4 44  1  0  0  0  0
  5 45  1  0  0  0  0
  6  7  1  0  0  0  0
  6 21  1  0  0  0  0
  6 46  1  0  0  0  0
  6 47  1  0  0  0  0
  7  8  1  0  0  0  0
  7 48  1  0  0  0  0
  7 49  1  0  0  0  0
  8  9  1  0  0  0  0
  8 50  1  0  0  0  0
  8 51  1  0  0  0  0
  9 22  2  0  0  0  0
  9 23  1  0  0  0  0
 10 12  1  0  0  0  0
 10 23  1  0  0  0  0
 10 24  1  0  0  0  0
 10 52  1  1  0  0  0
 11 24  1  0  0  0  0
 11 53  1  0  0  0  0
 11 54  1  0  0  0  0
 11 55  1  0  0  0  0
 12 26  2  0  0  0  0
 12 27  1  0  0  0  0
 13 14  1  0  0  0  0
 13 30  1  0  0  0  0
 13 33  1  0  0  0  0
 14 31  1  0  0  0  0
 14 56  1  0  0  0  0
 14 57  1  0  0  0  0
 15 32  1  0  0  0  0
 15 58  1  0  0  0  0
 15 59  1  0  0  0  0
 15 60  1  0  0  0  0
 16 32  1  0  0  0  0
 16 61  1  0  0  0  0
 16 62  1  0  0  0  0
 16 63  1  0  0  0  0
 17 33  1  0  0  0  0
 17 36  2  0  0  0  0
 17 40  1  0  0  0  0
 18 19  2  0  0  0  0
 18 64  1  0  0  0  0
 19 20  1  0  0  0  0
 19 65  1  0  0  0  0
 20 21  1  0  0  0  0
 23 66  1  0  0  0  0
 24 25  1  0  0  0  0
 24 67  1  0  0  0  0
 25 68  1  0  0  0  0
 25 69  1  0  0  0  0
 25 70  1  0  0  0  0
 27 71  1  0  0  0  0
 28 29  1  0  0  0  0
 28 30  1  0  0  0  0
 28 72  1  1  0  0  0
 29 73  1  0  0  0  0
 30 74  1  0  0  0  0
 30 75  1  0  0  0  0
 31 32  1  0  0  0  0
 31 76  1  0  0  0  0
 31 77  1  0  0  0  0
 32 78  1  0  0  0  0
 33 34  2  0  0  0  0
 33 35  2  0  0  0  0
 36 37  1  0  0  0  0
 36 79  1  0  0  0  0
 37 38  2  0  0  0  0
 37 80  1  0  0  0  0
 38 39  1  0  0  0  0
 38 81  1  0  0  0  0
 39 40  2  0  0  0  0
 39 82  1  0  0  0  0
 40 83  1  0  0  0  0
M  END
$$$$
