HCP
 OpenBabel04041915373D

 41 42  0  0  0  0  0  0  0  0999 V2000
   16.1102   52.4913   15.6271 C   0  0  0  0  0  0  0  0  0  0  0  0
   16.4386   52.9919   14.4006 C   0  0  0  0  0  0  0  0  0  0  0  0
   17.5594   52.7230   13.6711 N   0  0  0  0  0  0  0  0  0  0  0  0
   18.3948   51.8427   14.2582 C   0  0  0  0  0  0  0  0  0  0  0  0
   17.0027   51.5729   16.2124 C   0  0  0  0  0  0  0  0  0  0  0  0
   16.8182   51.1049   17.5900 C   0  0  0  0  0  0  0  0  0  0  0  0
   15.8753   51.5766   18.3083 N   0  0  0  0  0  0  0  0  0  0  0  0
   15.8217   51.1475   19.7193 C   0  0  0  0  0  0  0  0  0  0  0  0
   16.6282   49.9483   20.2131 C   0  0  0  0  0  0  0  0  0  0  0  0
   16.6894   50.1884   21.7133 C   0  0  0  0  0  0  0  0  0  0  0  0
   16.6143   51.7143   21.8851 C   0  0  0  0  0  0  0  0  0  0  0  0
   16.5189   52.2850   20.4767 C   0  0  0  0  0  0  0  0  0  0  0  0
   13.8344   51.1026   20.1745 P   0  0  0  0  0  0  0  0  0  0  0  0
   13.6813   51.0363   21.6936 O   0  0  0  0  0  0  0  0  0  0  0  0
   13.3654   52.4479   19.5978 O   0  0  0  0  0  0  0  0  0  0  0  0
   13.3312   49.8522   19.4556 O   0  0  0  0  0  0  0  0  0  0  0  0
   14.9381   52.9393   16.1689 O   0  0  0  0  0  0  0  0  0  0  0  0
   15.4658   53.9860   13.7672 C   0  0  0  0  0  0  0  0  0  0  0  0
   18.1680   51.2670   15.4924 C   0  0  0  0  0  0  0  0  0  0  0  0
   19.2245   50.3840   16.0502 C   0  0  0  0  0  0  0  0  0  0  0  0
   19.0452   49.0433   15.6773 O   0  0  0  0  0  0  0  0  0  0  0  0
   20.0681   48.1045   16.5810 P   0  0  0  0  0  0  0  0  0  0  0  0
   20.1545   48.7983   17.9286 O   0  0  0  0  0  0  0  0  0  0  0  0
   19.3865   46.7617   16.6113 O   0  0  0  0  0  0  0  0  0  0  0  0
   21.3541   48.1755   15.7773 O   0  0  0  0  0  0  0  0  0  0  0  0
   19.3090   51.6076   13.6982 H   0  0  0  0  0  0  0  0  0  0  0  0
   17.5606   50.3984   17.9884 H   0  0  0  0  0  0  0  0  0  0  0  0
   17.6715   49.9878   19.8474 H   0  0  0  0  0  0  0  0  0  0  0  0
   16.2326   48.9718   19.9251 H   0  0  0  0  0  0  0  0  0  0  0  0
   17.5993   49.7677   22.1590 H   0  0  0  0  0  0  0  0  0  0  0  0
   15.8380   49.6804   22.1811 H   0  0  0  0  0  0  0  0  0  0  0  0
   17.4674   52.1240   22.4245 H   0  0  0  0  0  0  0  0  0  0  0  0
   15.7171   52.0074   22.4445 H   0  0  0  0  0  0  0  0  0  0  0  0
   15.9908   53.2366   20.4109 H   0  0  0  0  0  0  0  0  0  0  0  0
   17.5250   52.4407   20.0635 H   0  0  0  0  0  0  0  0  0  0  0  0
   15.0683   53.1090   17.1356 H   0  0  0  0  0  0  0  0  0  0  0  0
   15.8189   54.3417   12.7976 H   0  0  0  0  0  0  0  0  0  0  0  0
   15.3417   54.8576   14.4260 H   0  0  0  0  0  0  0  0  0  0  0  0
   14.4796   53.5236   13.6279 H   0  0  0  0  0  0  0  0  0  0  0  0
   19.1701   50.4667   17.1163 H   0  0  0  0  0  0  0  0  0  0  0  0
   20.2178   50.7206   15.7721 H   0  0  0  0  0  0  0  0  0  0  0  0
  1 17  1  0  0  0  0
  1  5  2  0  0  0  0
  1  2  1  0  0  0  0
  2 18  1  0  0  0  0
  2  3  2  0  0  0  0
  3  4  1  0  0  0  0
  4 19  2  0  0  0  0
  4 26  1  0  0  0  0
  5 19  1  0  0  0  0
  5  6  1  0  0  0  0
  6  7  2  0  0  0  0
  6 27  1  0  0  0  0
  7  8  1  0  0  0  0
  8 13  1  0  0  0  0
  8 12  1  0  0  0  0
  8  9  1  0  0  0  0
  9 10  1  0  0  0  0
  9 28  1  0  0  0  0
  9 29  1  0  0  0  0
 10 11  1  0  0  0  0
 10 30  1  0  0  0  0
 10 31  1  0  0  0  0
 11 12  1  0  0  0  0
 11 32  1  0  0  0  0
 11 33  1  0  0  0  0
 12 34  1  0  0  0  0
 12 35  1  0  0  0  0
 13 16  2  0  0  0  0
 13 15  1  0  0  0  0
 13 14  1  0  0  0  0
 17 36  1  0  0  0  0
 18 37  1  0  0  0  0
 18 38  1  0  0  0  0
 18 39  1  0  0  0  0
 19 20  1  0  0  0  0
 20 21  1  0  0  0  0
 20 40  1  0  0  0  0
 20 41  1  0  0  0  0
 21 22  1  0  0  0  0
 22 25  2  0  0  0  0
 22 24  1  0  0  0  0
 22 23  1  0  0  0  0
M  END
$$$$
