HIS
 OpenBabel04041914593D

 20 20  0  0  1  0  0  0  0  0999 V2000
  -22.6306  -32.8118   -2.9942 N   0  3  0  0  0  0  0  0  0  0  0  0
  -21.5547  -33.5448   -3.7821 C   0  0  2  0  0  0  0  0  0  0  0  0
  -21.1641  -34.8616   -3.0725 C   0  0  0  0  0  0  0  0  0  0  0  0
  -20.4629  -35.6716   -3.7147 O   0  0  0  0  0  0  0  0  0  0  0  0
  -20.3603  -32.6560   -4.0861 C   0  0  0  0  0  0  0  0  0  0  0  0
  -19.4890  -32.1843   -2.9657 C   0  0  0  0  0  0  0  0  0  0  0  0
  -18.2364  -31.7001   -3.2912 N   0  0  0  0  0  0  0  0  0  0  0  0
  -19.6759  -32.0847   -1.6026 C   0  0  0  0  0  0  0  0  0  0  0  0
  -17.6630  -31.3723   -2.1605 C   0  0  0  0  0  0  0  0  0  0  0  0
  -18.5036  -31.5710   -1.1071 N   0  3  0  0  0  0  0  0  0  0  0  0
  -21.7441  -34.9388   -1.9379 O   0  0  0  0  0  0  0  0  0  0  0  0
  -23.3879  -33.4994   -2.8638 H   0  0  0  0  0  0  0  0  0  0  0  0
  -22.2694  -32.7351   -2.0342 H   0  0  0  0  0  0  0  0  0  0  0  0
  -22.0521  -33.8090   -4.7221 H   0  0  0  0  0  0  0  0  0  0  0  0
  -20.7149  -31.7636   -4.6185 H   0  0  0  0  0  0  0  0  0  0  0  0
  -19.7153  -33.1908   -4.7966 H   0  0  0  0  0  0  0  0  0  0  0  0
  -20.4791  -32.3482   -0.9319 H   0  0  0  0  0  0  0  0  0  0  0  0
  -16.6536  -30.9923   -2.0420 H   0  0  0  0  0  0  0  0  0  0  0  0
  -18.2916  -31.3804   -0.1354 H   0  0  0  0  0  0  0  0  0  0  0  0
  -22.9603  -31.9289   -3.3754 H   0  0  0  0  0  0  0  0  0  0  0  0
  1  2  1  0  0  0  0
  1 12  1  0  0  0  0
  1 13  1  0  0  0  0
  1 20  1  0  0  0  0
  2  5  1  0  0  0  0
  2  3  1  0  0  0  0
  2 14  1  6  0  0  0
  3  4  2  0  0  0  0
  3 11  1  0  0  0  0
  5  6  1  0  0  0  0
  5 15  1  0  0  0  0
  5 16  1  0  0  0  0
  6  7  1  0  0  0  0
  6  8  2  0  0  0  0
  7  9  1  0  0  0  0
  8 10  1  0  0  0  0
  8 17  1  0  0  0  0
  9 10  2  0  0  0  0
  9 18  1  0  0  0  0
 10 19  1  0  0  0  0
M  CHG  2   1   1  10   1
M  END
$$$$
