HIS
 OpenBabel04041915243D

 20 20  0  0  1  0  0  0  0  0999 V2000
   31.5566   30.3169   68.0772 N   0  3  0  0  0  0  0  0  0  0  0  0
   31.6240   28.8565   67.6783 C   0  0  2  0  0  0  0  0  0  0  0  0
   31.2618   27.9753   68.8967 C   0  0  0  0  0  0  0  0  0  0  0  0
   31.0971   28.7002   69.9320 O   0  0  0  0  0  0  0  0  0  0  0  0
   32.9693   28.5256   67.0443 C   0  0  0  0  0  0  0  0  0  0  0  0
   34.1946   28.4968   67.9089 C   0  0  0  0  0  0  0  0  0  0  0  0
   35.3403   27.8701   67.4563 N   0  0  0  0  0  0  0  0  0  0  0  0
   34.4456   29.0638   69.1369 C   0  0  0  0  0  0  0  0  0  0  0  0
   36.2301   28.0031   68.4109 C   0  0  0  0  0  0  0  0  0  0  0  0
   35.7329   28.7138   69.4615 N   0  3  0  0  0  0  0  0  0  0  0  0
   31.1019   26.7480   68.6808 O   0  0  0  0  0  0  0  0  0  0  0  0
   31.7614   30.9778   67.3338 H   0  0  0  0  0  0  0  0  0  0  0  0
   30.6273   30.4444   68.5106 H   0  0  0  0  0  0  0  0  0  0  0  0
   30.8392   28.7555   66.9184 H   0  0  0  0  0  0  0  0  0  0  0  0
   33.1640   29.2579   66.2481 H   0  0  0  0  0  0  0  0  0  0  0  0
   32.8792   27.5450   66.5584 H   0  0  0  0  0  0  0  0  0  0  0  0
   33.8469   29.6416   69.8225 H   0  0  0  0  0  0  0  0  0  0  0  0
   37.2453   27.6146   68.4103 H   0  0  0  0  0  0  0  0  0  0  0  0
   36.2293   28.9566   70.3155 H   0  0  0  0  0  0  0  0  0  0  0  0
   32.1689   30.3943   68.8924 H   0  0  0  0  0  0  0  0  0  0  0  0
  1  2  1  0  0  0  0
  1 12  1  0  0  0  0
  1 13  1  0  0  0  0
  1 20  1  0  0  0  0
  2  3  1  0  0  0  0
  2  5  1  0  0  0  0
  2 14  1  6  0  0  0
  3 11  2  0  0  0  0
  3  4  1  0  0  0  0
  5  6  1  0  0  0  0
  5 15  1  0  0  0  0
  5 16  1  0  0  0  0
  6  8  2  0  0  0  0
  6  7  1  0  0  0  0
  7  9  1  0  0  0  0
  8 10  1  0  0  0  0
  8 17  1  0  0  0  0
  9 10  2  0  0  0  0
  9 18  1  0  0  0  0
 10 19  1  0  0  0  0
M  CHG  2   1   1  10   1
M  END
$$$$
