HMN
 OpenBabel04041914343D

 41 40  0  0  1  0  0  0  0  0999 V2000
   -9.5130   47.0452   49.6511 C   0  0  0  0  0  0  0  0  0  0  0  0
  -10.2584   46.0774   50.0152 O   0  0  0  0  0  0  0  0  0  0  0  0
   -9.6811   47.8476   48.6922 O   0  0  0  0  0  0  0  0  0  0  0  0
   -8.2507   47.2303   50.5219 C   0  0  2  0  0  0  0  0  0  0  0  0
   -7.7138   48.5677   50.4392 O   0  0  0  0  0  0  0  0  0  0  0  0
   -7.1944   46.1984   50.1558 C   0  0  0  0  0  0  0  0  0  0  0  0
   -6.1409   46.1549   51.2684 C   0  0  2  0  0  0  0  0  0  0  0  0
   -5.2625   47.2824   51.1100 O   0  0  0  0  0  0  0  0  0  0  0  0
   -5.3414   44.8515   51.1631 C   0  0  1  0  0  0  0  0  0  0  0  0
   -4.6593   44.8240   49.8488 N   0  0  0  0  0  0  0  0  0  0  0  0
   -4.7893   43.7654   49.0524 C   0  0  0  0  0  0  0  0  0  0  0  0
   -5.2224   42.6816   49.4212 O   0  0  0  0  0  0  0  0  0  0  0  0
   -4.4108   43.9362   47.6080 C   0  0  0  0  0  0  0  0  0  0  0  0
   -4.3184   44.7046   52.2934 C   0  0  1  0  0  0  0  0  0  0  0  0
   -4.9378   44.8931   53.5758 O   0  0  0  0  0  0  0  0  0  0  0  0
   -3.6596   43.3232   52.2226 C   0  0  2  0  0  0  0  0  0  0  0  0
   -4.6237   42.2662   52.2055 O   0  0  0  0  0  0  0  0  0  0  0  0
   -2.7389   43.1095   53.4153 C   0  0  2  0  0  0  0  0  0  0  0  0
   -1.8165   44.1818   53.4790 O   0  0  0  0  0  0  0  0  0  0  0  0
   -2.0565   41.7509   53.2235 C   0  0  0  0  0  0  0  0  0  0  0  0
   -1.0107   41.8262   52.2655 O   0  0  0  0  0  0  0  0  0  0  0  0
   -8.5483   47.0656   51.5638 H   0  0  0  0  0  0  0  0  0  0  0  0
   -6.9457   48.6004   51.0299 H   0  0  0  0  0  0  0  0  0  0  0  0
   -6.7125   46.4660   49.2054 H   0  0  0  0  0  0  0  0  0  0  0  0
   -7.6521   45.2064   50.0384 H   0  0  0  0  0  0  0  0  0  0  0  0
   -6.6288   46.2325   52.2500 H   0  0  0  0  0  0  0  0  0  0  0  0
   -4.6067   47.2428   51.8227 H   0  0  0  0  0  0  0  0  0  0  0  0
   -6.0661   44.0268   51.2499 H   0  0  0  0  0  0  0  0  0  0  0  0
   -4.1655   45.6721   49.5822 H   0  0  0  0  0  0  0  0  0  0  0  0
   -4.5823   42.9781   47.1067 H   0  0  0  0  0  0  0  0  0  0  0  0
   -3.3615   44.2058   47.5340 H   0  0  0  0  0  0  0  0  0  0  0  0
   -5.0527   44.6899   47.1490 H   0  0  0  0  0  0  0  0  0  0  0  0
   -3.5444   45.4746   52.1756 H   0  0  0  0  0  0  0  0  0  0  0  0
   -4.2354   44.8486   54.2484 H   0  0  0  0  0  0  0  0  0  0  0  0
   -3.0691   43.2689   51.2997 H   0  0  0  0  0  0  0  0  0  0  0  0
   -5.1801   42.3316   52.9962 H   0  0  0  0  0  0  0  0  0  0  0  0
   -3.3126   43.0674   54.3363 H   0  0  0  0  0  0  0  0  0  0  0  0
   -1.2067   43.9960   54.2102 H   0  0  0  0  0  0  0  0  0  0  0  0
   -2.7826   41.0030   52.8842 H   0  0  0  0  0  0  0  0  0  0  0  0
   -1.6397   41.4108   54.1726 H   0  0  0  0  0  0  0  0  0  0  0  0
   -0.3923   42.5112   52.5653 H   0  0  0  0  0  0  0  0  0  0  0  0
  1  4  1  0  0  0  0
  1  3  2  0  0  0  0
  1  2  1  0  0  0  0
  4  6  1  0  0  0  0
  4  5  1  0  0  0  0
  4 22  1  1  0  0  0
  5 23  1  0  0  0  0
  6  7  1  0  0  0  0
  6 24  1  0  0  0  0
  6 25  1  0  0  0  0
  7  9  1  0  0  0  0
  7  8  1  0  0  0  0
  7 26  1  1  0  0  0
  8 27  1  0  0  0  0
  9 14  1  0  0  0  0
  9 10  1  0  0  0  0
  9 28  1  1  0  0  0
 10 11  1  0  0  0  0
 10 29  1  0  0  0  0
 11 13  1  0  0  0  0
 11 12  2  0  0  0  0
 13 30  1  0  0  0  0
 13 31  1  0  0  0  0
 13 32  1  0  0  0  0
 14 16  1  0  0  0  0
 14 15  1  0  0  0  0
 14 33  1  6  0  0  0
 15 34  1  0  0  0  0
 16 18  1  0  0  0  0
 16 17  1  0  0  0  0
 16 35  1  6  0  0  0
 17 36  1  0  0  0  0
 18 20  1  0  0  0  0
 18 19  1  0  0  0  0
 18 37  1  1  0  0  0
 19 38  1  0  0  0  0
 20 21  1  0  0  0  0
 20 39  1  0  0  0  0
 20 40  1  0  0  0  0
 21 41  1  0  0  0  0
M  END
$$$$
