HOP
 OpenBabel04041914163D

 54 56  0  0  1  0  0  0  0  0999 V2000
   11.2826    8.1541    0.6247 C   0  0  0  0  0  0  0  0  0  0  0  0
   10.2680    7.5405   -0.1200 C   0  0  0  0  0  0  0  0  0  0  0  0
   11.7921    9.3926    0.2212 C   0  0  0  0  0  0  0  0  0  0  0  0
   11.2858   10.0205   -0.9298 C   0  0  0  0  0  0  0  0  0  0  0  0
   10.2682    9.4213   -1.7048 C   0  0  0  0  0  0  0  0  0  0  0  0
    9.7647    8.1695   -1.2753 C   0  0  0  0  0  0  0  0  0  0  0  0
    9.7115   10.0932   -2.9820 C   0  0  2  0  0  0  0  0  0  0  0  0
   10.7769   10.8849   -3.7865 C   0  0  0  0  0  0  0  0  0  0  0  0
   10.2251   11.5622   -5.0637 C   0  0  1  0  0  0  0  0  0  0  0  0
    9.0415   12.5109   -4.7296 C   0  0  2  0  0  0  0  0  0  0  0  0
    7.9567   11.7012   -3.9534 C   0  0  0  0  0  0  0  0  0  0  0  0
    8.4975   11.0056   -2.6827 C   0  0  0  0  0  0  0  0  0  0  0  0
    8.4910   13.2130   -5.9969 C   0  0  0  0  0  0  0  0  0  0  0  0
    9.0871   14.4105   -6.4571 C   0  0  0  0  0  0  0  0  0  0  0  0
    8.6178   15.0710   -7.6081 C   0  0  0  0  0  0  0  0  0  0  0  0
    7.5356   14.5570   -8.3411 C   0  0  0  0  0  0  0  0  0  0  0  0
    6.9345   13.3610   -7.8937 C   0  0  0  0  0  0  0  0  0  0  0  0
    7.4121   12.6929   -6.7424 C   0  0  0  0  0  0  0  0  0  0  0  0
   11.3107   12.2531   -5.7005 O   0  0  0  0  0  0  0  0  0  0  0  0
    6.9982   15.2536   -9.5929 C   0  0  0  0  0  0  0  0  0  0  0  0
    5.9307   14.9436  -10.0604 O   0  0  0  0  0  0  0  0  0  0  0  0
    7.8164   16.2229  -10.1316 N   0  0  0  0  0  0  0  0  0  0  0  0
    7.5793   17.1044  -11.2801 C   0  0  0  0  0  0  0  0  0  0  0  0
    8.6349   18.2411  -11.3547 C   0  0  0  0  0  0  0  0  0  0  0  0
    9.5022   18.3507  -10.1007 C   0  0  0  0  0  0  0  0  0  0  0  0
   10.4335   19.5487   -9.9878 C   0  0  0  0  0  0  0  0  0  0  0  0
   11.3810   19.5916  -10.8199 O   0  0  0  0  0  0  0  0  0  0  0  0
   10.1659   20.2862   -8.9953 O   0  0  0  0  0  0  0  0  0  0  0  0
   11.6777    7.6709    1.5193 H   0  0  0  0  0  0  0  0  0  0  0  0
    9.8702    6.5739    0.1975 H   0  0  0  0  0  0  0  0  0  0  0  0
   12.5840    9.8710    0.8016 H   0  0  0  0  0  0  0  0  0  0  0  0
   11.7040   10.9851   -1.2188 H   0  0  0  0  0  0  0  0  0  0  0  0
    8.9787    7.6684   -1.8445 H   0  0  0  0  0  0  0  0  0  0  0  0
    9.3621    9.2820   -3.6401 H   0  0  0  0  0  0  0  0  0  0  0  0
   11.6048   10.2144   -4.0632 H   0  0  0  0  0  0  0  0  0  0  0  0
   11.2126   11.6693   -3.1518 H   0  0  0  0  0  0  0  0  0  0  0  0
    9.8850   10.7824   -5.7531 H   0  0  0  0  0  0  0  0  0  0  0  0
    9.4144   13.2975   -4.0504 H   0  0  0  0  0  0  0  0  0  0  0  0
    7.5405   10.9215   -4.6079 H   0  0  0  0  0  0  0  0  0  0  0  0
    7.1204   12.3631   -3.6806 H   0  0  0  0  0  0  0  0  0  0  0  0
    8.7809   11.7769   -1.9539 H   0  0  0  0  0  0  0  0  0  0  0  0
    7.6915   10.4135   -2.2180 H   0  0  0  0  0  0  0  0  0  0  0  0
    9.9347   14.8509   -5.9261 H   0  0  0  0  0  0  0  0  0  0  0  0
    9.1093   15.9959   -7.9070 H   0  0  0  0  0  0  0  0  0  0  0  0
    6.0932   12.9352   -8.4465 H   0  0  0  0  0  0  0  0  0  0  0  0
    6.9221   11.7660   -6.4400 H   0  0  0  0  0  0  0  0  0  0  0  0
   10.9806   12.6698   -6.5198 H   0  0  0  0  0  0  0  0  0  0  0  0
    8.6949   16.3645   -9.6763 H   0  0  0  0  0  0  0  0  0  0  0  0
    6.5692   17.5306  -11.2149 H   0  0  0  0  0  0  0  0  0  0  0  0
    7.6136   16.5018  -12.2005 H   0  0  0  0  0  0  0  0  0  0  0  0
    8.1208   19.1971  -11.5219 H   0  0  0  0  0  0  0  0  0  0  0  0
    9.2829   18.0704  -12.2252 H   0  0  0  0  0  0  0  0  0  0  0  0
   10.1103   17.4377  -10.0056 H   0  0  0  0  0  0  0  0  0  0  0  0
    8.8304   18.3991   -9.2281 H   0  0  0  0  0  0  0  0  0  0  0  0
  1  3  2  0  0  0  0
  1  2  1  0  0  0  0
  1 29  1  0  0  0  0
  2  6  2  0  0  0  0
  2 30  1  0  0  0  0
  3  4  1  0  0  0  0
  3 31  1  0  0  0  0
  4  5  2  0  0  0  0
  4 32  1  0  0  0  0
  5  6  1  0  0  0  0
  5  7  1  0  0  0  0
  6 33  1  0  0  0  0
  7 12  1  0  0  0  0
  7  8  1  0  0  0  0
  7 34  1  6  0  0  0
  8  9  1  0  0  0  0
  8 35  1  0  0  0  0
  8 36  1  0  0  0  0
  9 19  1  0  0  0  0
  9 10  1  0  0  0  0
  9 37  1  6  0  0  0
 10 13  1  0  0  0  0
 10 11  1  0  0  0  0
 10 38  1  1  0  0  0
 11 12  1  0  0  0  0
 11 39  1  0  0  0  0
 11 40  1  0  0  0  0
 12 41  1  0  0  0  0
 12 42  1  0  0  0  0
 13 18  2  0  0  0  0
 13 14  1  0  0  0  0
 14 15  2  0  0  0  0
 14 43  1  0  0  0  0
 15 16  1  0  0  0  0
 15 44  1  0  0  0  0
 16 20  1  0  0  0  0
 16 17  2  0  0  0  0
 17 18  1  0  0  0  0
 17 45  1  0  0  0  0
 18 46  1  0  0  0  0
 19 47  1  0  0  0  0
 20 22  1  0  0  0  0
 20 21  2  0  0  0  0
 22 23  1  0  0  0  0
 22 48  1  0  0  0  0
 23 24  1  0  0  0  0
 23 49  1  0  0  0  0
 23 50  1  0  0  0  0
 24 25  1  0  0  0  0
 24 51  1  0  0  0  0
 24 52  1  0  0  0  0
 25 26  1  0  0  0  0
 25 53  1  0  0  0  0
 25 54  1  0  0  0  0
 26 28  2  0  0  0  0
 26 27  1  0  0  0  0
M  END
$$$$
