HPA
 OpenBabel04041913533D

 14 15  0  0  0  0  0  0  0  0999 V2000
   26.4614   90.1482   73.3228 N   0  3  0  0  0  0  0  0  0  0  0  0
   25.4186   89.2385   73.2671 C   0  0  0  0  0  0  0  0  0  0  0  0
   24.1604   89.5214   73.4207 N   0  0  0  0  0  0  0  0  0  0  0  0
   23.9645   90.8396   73.6464 C   0  0  0  0  0  0  0  0  0  0  0  0
   24.8925   91.8535   73.7313 C   0  0  0  0  0  0  0  0  0  0  0  0
   26.2927   91.5082   73.5553 C   0  0  0  0  0  0  0  0  0  0  0  0
   27.2418   92.2816   73.5938 O   0  0  0  0  0  0  0  0  0  0  0  0
   24.2819   93.0588   73.9734 N   0  0  0  0  0  0  0  0  0  0  0  0
   22.9954   92.7716   74.0251 C   0  0  0  0  0  0  0  0  0  0  0  0
   22.7548   91.4356   73.8315 N   0  3  0  0  0  0  0  0  0  0  0  0
   27.4143   89.8460   73.1899 H   0  0  0  0  0  0  0  0  0  0  0  0
   25.7478   88.2055   73.0723 H   0  0  0  0  0  0  0  0  0  0  0  0
   22.1970   93.4803   74.1961 H   0  0  0  0  0  0  0  0  0  0  0  0
   21.8596   90.9678   73.8189 H   0  0  0  0  0  0  0  0  0  0  0  0
  1  2  1  0  0  0  0
  1  6  1  0  0  0  0
  1 11  1  0  0  0  0
  2  3  2  0  0  0  0
  2 12  1  0  0  0  0
  3  4  1  0  0  0  0
  4  5  2  0  0  0  0
  4 10  1  0  0  0  0
  5  6  1  0  0  0  0
  5  8  1  0  0  0  0
  6  7  2  0  0  0  0
  8  9  1  0  0  0  0
  9 10  2  0  0  0  0
  9 13  1  0  0  0  0
 10 14  1  0  0  0  0
M  CHG  2   1   1  10   1
M  END
$$$$
