HPA
 OpenBabel04041917223D

 14 15  0  0  0  0  0  0  0  0999 V2000
   74.6011   49.8251   49.6460 N   0  3  0  0  0  0  0  0  0  0  0  0
   75.4646   48.7521   49.5922 C   0  0  0  0  0  0  0  0  0  0  0  0
   75.1613   47.5048   49.7555 N   0  0  0  0  0  0  0  0  0  0  0  0
   73.8032   47.2916   50.0060 C   0  0  0  0  0  0  0  0  0  0  0  0
   72.9060   48.3209   50.0875 C   0  0  0  0  0  0  0  0  0  0  0  0
   73.2613   49.6812   49.9165 C   0  0  0  0  0  0  0  0  0  0  0  0
   72.4905   50.6293   49.9946 O   0  0  0  0  0  0  0  0  0  0  0  0
   71.7011   47.7390   50.3466 N   0  3  0  0  0  0  0  0  0  0  0  0
   71.9220   46.3870   50.3948 C   0  0  0  0  0  0  0  0  0  0  0  0
   73.1894   46.0908   50.1943 N   0  0  0  0  0  0  0  0  0  0  0  0
   74.9337   50.7663   49.4994 H   0  0  0  0  0  0  0  0  0  0  0  0
   76.5058   49.0487   49.3857 H   0  0  0  0  0  0  0  0  0  0  0  0
   70.8167   48.2125   50.4715 H   0  0  0  0  0  0  0  0  0  0  0  0
   71.1271   45.6742   50.5780 H   0  0  0  0  0  0  0  0  0  0  0  0
  1  6  1  0  0  0  0
  1  2  1  0  0  0  0
  1 11  1  0  0  0  0
  2  3  2  0  0  0  0
  2 12  1  0  0  0  0
  3  4  1  0  0  0  0
  4 10  1  0  0  0  0
  4  5  2  0  0  0  0
  5  8  1  0  0  0  0
  5  6  1  0  0  0  0
  6  7  2  0  0  0  0
  8  9  2  0  0  0  0
  8 13  1  0  0  0  0
  9 10  1  0  0  0  0
  9 14  1  0  0  0  0
M  CHG  2   1   1   8   1
M  END
$$$$
