HPF
 OpenBabel04041916583D

 30 30  0  0  1  0  0  0  0  0999 V2000
   52.2025   25.4828   14.8044 C   0  0  0  0  0  0  0  0  0  0  0  0
   51.6068   24.2123   14.8092 C   0  0  0  0  0  0  0  0  0  0  0  0
   50.2331   24.1194   15.0885 C   0  0  0  0  0  0  0  0  0  0  0  0
   49.4944   25.2641   15.3338 C   0  0  0  0  0  0  0  0  0  0  0  0
   50.0485   26.5458   15.3705 C   0  0  0  0  0  0  0  0  0  0  0  0
   51.4207   26.6327   15.0976 C   0  0  0  0  0  0  0  0  0  0  0  0
   52.0395   27.8503   15.1358 O   0  0  0  0  0  0  0  0  0  0  0  0
   49.2001   27.6194   15.6543 N   0  0  0  0  0  0  0  0  0  0  0  0
   48.1877   28.0327   14.6626 C   0  0  1  0  0  0  0  0  0  0  0  0
   48.6481   28.0874   13.1934 C   0  0  1  0  0  0  0  0  0  0  0  0
   47.4704   28.3648   12.2485 C   0  0  0  0  0  0  0  0  0  0  0  0
   47.9022   28.0812   10.9118 O   0  0  0  0  0  0  0  0  0  0  0  0
   48.2228   29.3720    9.9634 P   0  0  0  0  0  0  0  0  0  0  0  0
   46.9213   30.1516    9.9870 O   0  0  0  0  0  0  0  0  0  0  0  0
   49.4061   30.0564   10.6976 O   0  0  0  0  0  0  0  0  0  0  0  0
   48.5946   28.7462    8.6430 O   0  0  0  0  0  0  0  0  0  0  0  0
   47.0742   27.1658   14.8558 O   0  0  0  0  0  0  0  0  0  0  0  0
   49.6468   29.1185   13.0943 O   0  0  0  0  0  0  0  0  0  0  0  0
   53.2518   25.5625   14.5850 H   0  0  0  0  0  0  0  0  0  0  0  0
   52.1734   23.3221   14.5940 H   0  0  0  0  0  0  0  0  0  0  0  0
   49.7409   23.1571   15.0893 H   0  0  0  0  0  0  0  0  0  0  0  0
   48.4184   25.1690   15.5292 H   0  0  0  0  0  0  0  0  0  0  0  0
   52.9519   27.7665   14.8154 H   0  0  0  0  0  0  0  0  0  0  0  0
   49.6020   28.3664   16.2091 H   0  0  0  0  0  0  0  0  0  0  0  0
   47.8488   29.0471   14.9279 H   0  0  0  0  0  0  0  0  0  0  0  0
   49.1030   27.1394   12.8880 H   0  0  0  0  0  0  0  0  0  0  0  0
   47.1350   29.4006   12.3338 H   0  0  0  0  0  0  0  0  0  0  0  0
   46.6155   27.7152   12.4457 H   0  0  0  0  0  0  0  0  0  0  0  0
   46.8575   27.2840   15.7904 H   0  0  0  0  0  0  0  0  0  0  0  0
   49.7439   29.3194   12.1158 H   0  0  0  0  0  0  0  0  0  0  0  0
  1  2  2  0  0  0  0
  1  6  1  0  0  0  0
  1 19  1  0  0  0  0
  2  3  1  0  0  0  0
  2 20  1  0  0  0  0
  3  4  2  0  0  0  0
  3 21  1  0  0  0  0
  4  5  1  0  0  0  0
  4 22  1  0  0  0  0
  5  6  2  0  0  0  0
  5  8  1  0  0  0  0
  6  7  1  0  0  0  0
  7 23  1  0  0  0  0
  8  9  1  0  0  0  0
  8 24  1  0  0  0  0
  9 10  1  0  0  0  0
  9 17  1  0  0  0  0
  9 25  1  1  0  0  0
 10 11  1  0  0  0  0
 10 18  1  0  0  0  0
 10 26  1  6  0  0  0
 11 12  1  0  0  0  0
 11 27  1  0  0  0  0
 11 28  1  0  0  0  0
 12 13  1  0  0  0  0
 13 14  2  0  0  0  0
 13 15  1  0  0  0  0
 13 16  1  0  0  0  0
 17 29  1  0  0  0  0
 18 30  1  0  0  0  0
M  END
$$$$
