HSM
 OpenBabel04041916373D

 18 18  0  0  0  0  0  0  0  0999 V2000
   71.9000   47.2014   26.1063 N   0  3  0  0  0  0  0  0  0  0  0  0
   72.7178   46.1921   25.3770 C   0  0  0  0  0  0  0  0  0  0  0  0
   73.0464   45.0199   26.2921 C   0  0  0  0  0  0  0  0  0  0  0  0
   73.7129   43.9368   25.5360 C   0  0  0  0  0  0  0  0  0  0  0  0
   75.0493   44.0254   25.2454 N   0  0  0  0  0  0  0  0  0  0  0  0
   73.1815   42.7813   25.0089 C   0  0  0  0  0  0  0  0  0  0  0  0
   75.3425   42.9187   24.5972 C   0  0  0  0  0  0  0  0  0  0  0  0
   74.2360   42.1359   24.4190 N   0  3  0  0  0  0  0  0  0  0  0  0
   71.6728   47.9953   25.4923 H   0  0  0  0  0  0  0  0  0  0  0  0
   71.0116   46.8070   26.4414 H   0  0  0  0  0  0  0  0  0  0  0  0
   73.6198   46.7064   25.0268 H   0  0  0  0  0  0  0  0  0  0  0  0
   72.1246   45.8828   24.5097 H   0  0  0  0  0  0  0  0  0  0  0  0
   72.1345   44.6345   26.7623 H   0  0  0  0  0  0  0  0  0  0  0  0
   73.7023   45.3569   27.1047 H   0  0  0  0  0  0  0  0  0  0  0  0
   72.1849   42.3608   25.0079 H   0  0  0  0  0  0  0  0  0  0  0  0
   76.3202   42.6278   24.2346 H   0  0  0  0  0  0  0  0  0  0  0  0
   74.2106   41.2452   23.9418 H   0  0  0  0  0  0  0  0  0  0  0  0
   72.4087   47.5792   26.9174 H   0  0  0  0  0  0  0  0  0  0  0  0
  1  2  1  0  0  0  0
  1  9  1  0  0  0  0
  1 10  1  0  0  0  0
  1 18  1  0  0  0  0
  2  3  1  0  0  0  0
  2 11  1  0  0  0  0
  2 12  1  0  0  0  0
  3  4  1  0  0  0  0
  3 13  1  0  0  0  0
  3 14  1  0  0  0  0
  4  6  2  0  0  0  0
  4  5  1  0  0  0  0
  5  7  1  0  0  0  0
  6  8  1  0  0  0  0
  6 15  1  0  0  0  0
  7  8  2  0  0  0  0
  7 16  1  0  0  0  0
  8 17  1  0  0  0  0
M  CHG  2   1   1   8   1
M  END
$$$$
