HSM
 OpenBabel04041913583D

 18 18  0  0  0  0  0  0  0  0999 V2000
    0.4433    5.1089    9.7628 N   0  3  0  0  0  0  0  0  0  0  0  0
   -0.7083    5.9254   10.2769 C   0  0  0  0  0  0  0  0  0  0  0  0
   -1.9771    5.5950    9.4836 C   0  0  0  0  0  0  0  0  0  0  0  0
   -3.0641    4.9129   10.2508 C   0  0  0  0  0  0  0  0  0  0  0  0
   -3.4092    3.5922   10.0449 N   0  3  0  0  0  0  0  0  0  0  0  0
   -4.0329    5.3867   11.1053 C   0  0  0  0  0  0  0  0  0  0  0  0
   -4.5299    3.3335   10.7782 C   0  0  0  0  0  0  0  0  0  0  0  0
   -4.9115    4.3937   11.4415 N   0  0  0  0  0  0  0  0  0  0  0  0
    1.3166    5.3708   10.2401 H   0  0  0  0  0  0  0  0  0  0  0  0
    0.2937    4.1069    9.9263 H   0  0  0  0  0  0  0  0  0  0  0  0
   -0.4114    6.9644   10.1038 H   0  0  0  0  0  0  0  0  0  0  0  0
   -0.7740    5.7377   11.3531 H   0  0  0  0  0  0  0  0  0  0  0  0
   -1.7290    4.9813    8.6069 H   0  0  0  0  0  0  0  0  0  0  0  0
   -2.3868    6.5354    9.0953 H   0  0  0  0  0  0  0  0  0  0  0  0
   -2.9824    2.9323    9.4106 H   0  0  0  0  0  0  0  0  0  0  0  0
   -4.1793    6.3934   11.4734 H   0  0  0  0  0  0  0  0  0  0  0  0
   -5.0264    2.3704   10.7704 H   0  0  0  0  0  0  0  0  0  0  0  0
    0.5945    5.2610    8.7564 H   0  0  0  0  0  0  0  0  0  0  0  0
  1  2  1  0  0  0  0
  1  9  1  0  0  0  0
  1 10  1  0  0  0  0
  1 18  1  0  0  0  0
  2  3  1  0  0  0  0
  2 11  1  0  0  0  0
  2 12  1  0  0  0  0
  3  4  1  0  0  0  0
  3 13  1  0  0  0  0
  3 14  1  0  0  0  0
  4  6  2  0  0  0  0
  4  5  1  0  0  0  0
  5  7  2  0  0  0  0
  5 15  1  0  0  0  0
  6  8  1  0  0  0  0
  6 16  1  0  0  0  0
  7  8  1  0  0  0  0
  7 17  1  0  0  0  0
M  CHG  2   1   1   5   1
M  END
$$$$
