HUB
 OpenBabel04041914513D

 40 43  0  0  1  0  0  0  0  0999 V2000
    1.1132   68.7522   61.1562 C   0  0  0  0  0  0  0  0  0  0  0  0
    0.4794   69.2301   60.2232 O   0  0  0  0  0  0  0  0  0  0  0  0
    2.3699   68.2216   61.0191 N   0  3  0  0  0  0  0  0  0  0  0  0
    0.5560   68.7215   62.5272 C   0  0  0  0  0  0  0  0  0  0  0  0
    1.2807   68.2096   63.5319 C   0  0  0  0  0  0  0  0  0  0  0  0
    2.6296   67.6949   63.3092 C   0  0  0  0  0  0  0  0  0  0  0  0
    3.1213   67.6973   62.0493 C   0  0  0  0  0  0  0  0  0  0  0  0
    4.4931   67.1726   61.6740 C   0  0  0  0  0  0  0  0  0  0  0  0
    5.2489   66.5267   62.8557 C   0  0  2  0  0  0  0  0  0  0  0  0
    4.8277   65.0812   63.0291 C   0  0  0  0  0  0  0  0  0  0  0  0
    5.1455   69.4622   65.4368 C   0  0  0  0  0  0  0  0  0  0  0  0
    5.4618   68.7535   64.1236 C   0  0  0  0  0  0  0  0  0  0  0  0
    4.9869   67.2884   64.1699 C   0  0  1  0  0  0  0  0  0  0  0  0
    3.4689   67.1687   64.4838 C   0  0  1  0  0  0  0  0  0  0  0  0
    3.2543   67.9280   65.7915 N   0  3  0  0  0  0  0  0  0  0  0  0
    3.1059   65.6705   64.7449 C   0  0  0  0  0  0  0  0  0  0  0  0
    3.8717   64.6841   63.8901 C   0  0  0  0  0  0  0  0  0  0  0  0
    3.4900   63.2396   64.0610 C   0  0  0  0  0  0  0  0  0  0  0  0
    3.6686   69.3642   65.7789 C   0  0  0  0  0  0  0  0  0  0  0  0
    2.7339   68.2415   60.0711 H   0  0  0  0  0  0  0  0  0  0  0  0
   -0.4446   69.1155   62.6528 H   0  0  0  0  0  0  0  0  0  0  0  0
    0.8321   68.1823   64.5172 H   0  0  0  0  0  0  0  0  0  0  0  0
    5.0890   68.0123   61.2933 H   0  0  0  0  0  0  0  0  0  0  0  0
    4.4024   66.4566   60.8474 H   0  0  0  0  0  0  0  0  0  0  0  0
    6.3255   66.5353   62.6425 H   0  0  0  0  0  0  0  0  0  0  0  0
    5.3512   64.3458   62.4168 H   0  0  0  0  0  0  0  0  0  0  0  0
    5.4368   70.5159   65.3656 H   0  0  0  0  0  0  0  0  0  0  0  0
    5.7430   69.0188   66.2428 H   0  0  0  0  0  0  0  0  0  0  0  0
    4.9820   69.3089   63.3103 H   0  0  0  0  0  0  0  0  0  0  0  0
    6.5400   68.7927   63.9309 H   0  0  0  0  0  0  0  0  0  0  0  0
    5.5587   66.7960   64.9730 H   0  0  0  0  0  0  0  0  0  0  0  0
    2.2710   67.8557   66.0752 H   0  0  0  0  0  0  0  0  0  0  0  0
    2.0307   65.5147   64.5849 H   0  0  0  0  0  0  0  0  0  0  0  0
    3.3024   65.4132   65.7939 H   0  0  0  0  0  0  0  0  0  0  0  0
    4.0818   62.5747   63.4239 H   0  0  0  0  0  0  0  0  0  0  0  0
    2.4343   63.0965   63.8091 H   0  0  0  0  0  0  0  0  0  0  0  0
    3.6427   62.9307   65.1005 H   0  0  0  0  0  0  0  0  0  0  0  0
    3.0401   69.8937   65.0575 H   0  0  0  0  0  0  0  0  0  0  0  0
    3.4666   69.7594   66.7790 H   0  0  0  0  0  0  0  0  0  0  0  0
    3.7820   67.4504   66.5352 H   0  0  0  0  0  0  0  0  0  0  0  0
  1  4  1  0  0  0  0
  1  3  1  0  0  0  0
  1  2  2  0  0  0  0
  3  7  1  0  0  0  0
  3 20  1  0  0  0  0
  4  5  2  0  0  0  0
  4 21  1  0  0  0  0
  5  6  1  0  0  0  0
  5 22  1  0  0  0  0
  6  7  2  0  0  0  0
  7  8  1  0  0  0  0
  8  9  1  0  0  0  0
  8 23  1  0  0  0  0
  8 24  1  0  0  0  0
  9 13  1  0  0  0  0
  9 10  1  0  0  0  0
  9 25  1  6  0  0  0
 10 17  2  0  0  0  0
 10 26  1  0  0  0  0
 11 12  1  0  0  0  0
 11 19  1  0  0  0  0
 11 27  1  0  0  0  0
 11 28  1  0  0  0  0
 12 13  1  0  0  0  0
 12 29  1  0  0  0  0
 12 30  1  0  0  0  0
 13 14  1  0  0  0  0
 13 31  1  1  0  0  0
 14  6  1  6  0  0  0
 14 16  1  0  0  0  0
 14 15  1  0  0  0  0
 15 19  1  0  0  0  0
 15 32  1  0  0  0  0
 15 40  1  0  0  0  0
 16 17  1  0  0  0  0
 16 33  1  0  0  0  0
 16 34  1  0  0  0  0
 17 18  1  0  0  0  0
 18 35  1  0  0  0  0
 18 36  1  0  0  0  0
 18 37  1  0  0  0  0
 19 38  1  0  0  0  0
 19 39  1  0  0  0  0
M  CHG  2   3   1  15   1
M  END
$$$$
