HUP
 OpenBabel04041914513D

 37 39  0  0  1  0  0  0  0  0999 V2000
    0.7410   68.8506   60.5666 C   0  0  0  0  0  0  0  0  0  0  0  0
    0.2548   69.3271   59.5529 O   0  0  0  0  0  0  0  0  0  0  0  0
    2.0151   68.2772   60.6484 N   0  3  0  0  0  0  0  0  0  0  0  0
    0.0046   68.8142   61.8749 C   0  0  0  0  0  0  0  0  0  0  0  0
    0.5760   68.2751   62.9756 C   0  0  0  0  0  0  0  0  0  0  0  0
    1.9307   67.6983   62.9544 C   0  0  0  0  0  0  0  0  0  0  0  0
    2.5994   67.7273   61.7678 C   0  0  0  0  0  0  0  0  0  0  0  0
    4.0150   67.1681   61.5916 C   0  0  0  0  0  0  0  0  0  0  0  0
    4.6481   66.6017   62.9080 C   0  0  1  0  0  0  0  0  0  0  0  0
    5.3577   67.6954   63.7165 C   0  0  0  0  0  0  0  0  0  0  0  0
    4.3544   63.5655   63.7390 C   0  0  0  0  0  0  0  0  0  0  0  0
    3.4582   64.6848   64.1476 C   0  0  0  0  0  0  0  0  0  0  0  0
    3.5592   65.9841   63.7943 C   0  0  0  0  0  0  0  0  0  0  0  0
    2.5703   67.0650   64.2265 C   0  0  2  0  0  0  0  0  0  0  0  0
    1.5164   66.4708   65.1320 N   0  3  0  0  0  0  0  0  0  0  0  0
    3.3178   68.1275   65.0979 C   0  0  0  0  0  0  0  0  0  0  0  0
    4.7606   68.3814   64.7152 C   0  0  0  0  0  0  0  0  0  0  0  0
    5.4525   69.4481   65.5244 C   0  0  0  0  0  0  0  0  0  0  0  0
    2.5176   68.2995   59.7591 H   0  0  0  0  0  0  0  0  0  0  0  0
   -0.9901   69.2474   61.9028 H   0  0  0  0  0  0  0  0  0  0  0  0
    0.0036   68.2780   63.9003 H   0  0  0  0  0  0  0  0  0  0  0  0
    4.6610   67.9619   61.1765 H   0  0  0  0  0  0  0  0  0  0  0  0
    3.9732   66.3658   60.8321 H   0  0  0  0  0  0  0  0  0  0  0  0
    5.3909   65.8366   62.6348 H   0  0  0  0  0  0  0  0  0  0  0  0
    6.4036   67.9162   63.4716 H   0  0  0  0  0  0  0  0  0  0  0  0
    3.9985   62.6301   64.1992 H   0  0  0  0  0  0  0  0  0  0  0  0
    5.3765   63.7477   64.0771 H   0  0  0  0  0  0  0  0  0  0  0  0
    4.3394   63.4398   62.6531 H   0  0  0  0  0  0  0  0  0  0  0  0
    2.6456   64.3966   64.7999 H   0  0  0  0  0  0  0  0  0  0  0  0
    1.9325   66.0450   65.9745 H   0  0  0  0  0  0  0  0  0  0  0  0
    0.8512   67.1831   65.4386 H   0  0  0  0  0  0  0  0  0  0  0  0
    3.3124   67.8252   66.1619 H   0  0  0  0  0  0  0  0  0  0  0  0
    2.7721   69.0762   65.0204 H   0  0  0  0  0  0  0  0  0  0  0  0
    6.4864   69.5855   65.1939 H   0  0  0  0  0  0  0  0  0  0  0  0
    5.4601   69.1712   66.5868 H   0  0  0  0  0  0  0  0  0  0  0  0
    4.9235   70.4047   65.4218 H   0  0  0  0  0  0  0  0  0  0  0  0
    1.0033   65.7394   64.6238 H   0  0  0  0  0  0  0  0  0  0  0  0
  1  4  1  0  0  0  0
  1  3  1  0  0  0  0
  1  2  2  0  0  0  0
  3  7  1  0  0  0  0
  3 19  1  0  0  0  0
  4  5  2  0  0  0  0
  4 20  1  0  0  0  0
  5  6  1  0  0  0  0
  5 21  1  0  0  0  0
  6  7  2  0  0  0  0
  6 14  1  0  0  0  0
  7  8  1  0  0  0  0
  8  9  1  0  0  0  0
  8 22  1  0  0  0  0
  8 23  1  0  0  0  0
  9 13  1  0  0  0  0
  9 10  1  0  0  0  0
  9 24  1  6  0  0  0
 10 17  2  0  0  0  0
 10 25  1  0  0  0  0
 11 12  1  0  0  0  0
 11 26  1  0  0  0  0
 11 27  1  0  0  0  0
 11 28  1  0  0  0  0
 12 13  2  0  0  0  0
 12 29  1  0  0  0  0
 13 14  1  0  0  0  0
 14 16  1  0  0  0  0
 14 15  1  1  0  0  0
 15 30  1  0  0  0  0
 15 31  1  0  0  0  0
 15 37  1  0  0  0  0
 16 17  1  0  0  0  0
 16 32  1  0  0  0  0
 16 33  1  0  0  0  0
 17 18  1  0  0  0  0
 18 34  1  0  0  0  0
 18 35  1  0  0  0  0
 18 36  1  0  0  0  0
M  CHG  2   3   1  15   1
M  END
$$$$
