I3P
 OpenBabel04041915503D

 33 33  0  0  1  0  0  0  0  0999 V2000
   23.1542   -2.0952   10.2456 C   0  0  2  0  0  0  0  0  0  0  0  0
   22.5780   -3.4643   10.6604 C   0  0  1  0  0  0  0  0  0  0  0  0
   22.9350   -3.7742   12.1359 C   0  0  1  0  0  0  0  0  0  0  0  0
   22.3890   -2.6897   13.0832 C   0  0  2  0  0  0  0  0  0  0  0  0
   22.9675   -1.3165   12.6641 C   0  0  1  0  0  0  0  0  0  0  0  0
   22.6134   -1.0093   11.1882 C   0  0  1  0  0  0  0  0  0  0  0  0
   22.7508   -1.7208    8.9177 O   0  0  0  0  0  0  0  0  0  0  0  0
   21.1328   -3.4856   10.5020 O   0  0  0  0  0  0  0  0  0  0  0  0
   22.3709   -5.0629   12.4625 O   0  0  0  0  0  0  0  0  0  0  0  0
   22.8322   -3.0261   14.4159 O   0  0  0  0  0  0  0  0  0  0  0  0
   22.3562   -0.3322   13.4909 O   0  0  0  0  0  0  0  0  0  0  0  0
   23.1626    0.2568   10.7867 O   0  0  0  0  0  0  0  0  0  0  0  0
   23.6743   -2.0791    7.6238 P   0  0  0  0  0  0  0  0  0  0  0  0
   22.9580   -1.4299    6.4391 O   0  0  0  0  0  0  0  0  0  0  0  0
   23.7094   -3.5883    7.5516 O   0  0  0  0  0  0  0  0  0  0  0  0
   25.0390   -1.4472    7.9202 O   0  0  0  0  0  0  0  0  0  0  0  0
   21.7567   -3.5350   15.5474 P   0  0  0  0  0  0  0  0  0  0  0  0
   20.6445   -2.5425   15.5995 O   0  0  0  0  0  0  0  0  0  0  0  0
   21.2942   -4.9315   15.0822 O   0  0  0  0  0  0  0  0  0  0  0  0
   22.5688   -3.6975   16.8640 O   0  0  0  0  0  0  0  0  0  0  0  0
   23.1420    0.8916   14.1972 P   0  0  0  0  0  0  0  0  0  0  0  0
   22.0438    1.6409   14.9682 O   0  0  0  0  0  0  0  0  0  0  0  0
   24.2622    0.3441   15.0560 O   0  0  0  0  0  0  0  0  0  0  0  0
   23.6766    1.7780   13.0505 O   0  0  0  0  0  0  0  0  0  0  0  0
   24.2509   -2.1432   10.3327 H   0  0  0  0  0  0  0  0  0  0  0  0
   22.9717   -4.2673   10.0202 H   0  0  0  0  0  0  0  0  0  0  0  0
   24.0293   -3.8557   12.2410 H   0  0  0  0  0  0  0  0  0  0  0  0
   21.2886   -2.6665   13.0019 H   0  0  0  0  0  0  0  0  0  0  0  0
   24.0603   -1.3230   12.7713 H   0  0  0  0  0  0  0  0  0  0  0  0
   21.5209   -0.9283   11.0722 H   0  0  0  0  0  0  0  0  0  0  0  0
   20.8240   -4.3414   10.8377 H   0  0  0  0  0  0  0  0  0  0  0  0
   22.7589   -5.7373   11.9085 H   0  0  0  0  0  0  0  0  0  0  0  0
   22.9209    0.4044    9.8598 H   0  0  0  0  0  0  0  0  0  0  0  0
  1  7  1  0  0  0  0
  1  6  1  0  0  0  0
  1  2  1  0  0  0  0
  1 25  1  1  0  0  0
  2  8  1  0  0  0  0
  2  3  1  0  0  0  0
  2 26  1  6  0  0  0
  3  9  1  0  0  0  0
  3  4  1  0  0  0  0
  3 27  1  1  0  0  0
  4 10  1  0  0  0  0
  4  5  1  0  0  0  0
  4 28  1  6  0  0  0
  5 11  1  0  0  0  0
  5  6  1  0  0  0  0
  5 29  1  1  0  0  0
  6 12  1  0  0  0  0
  6 30  1  6  0  0  0
  7 13  1  0  0  0  0
  8 31  1  0  0  0  0
  9 32  1  0  0  0  0
 10 17  1  0  0  0  0
 11 21  1  0  0  0  0
 12 33  1  0  0  0  0
 13 16  2  0  0  0  0
 13 15  1  0  0  0  0
 13 14  1  0  0  0  0
 17 20  2  0  0  0  0
 17 19  1  0  0  0  0
 17 18  1  0  0  0  0
 21 24  2  0  0  0  0
 21 23  1  0  0  0  0
 21 22  1  0  0  0  0
M  END
$$$$
