I3P
 OpenBabel04041914533D

 33 33  0  0  1  0  0  0  0  0999 V2000
   24.2590   33.7394    2.5995 C   0  0  2  0  0  0  0  0  0  0  0  0
   25.2810   34.2906    3.6171 C   0  0  1  0  0  0  0  0  0  0  0  0
   24.5856   35.1737    4.6750 C   0  0  1  0  0  0  0  0  0  0  0  0
   23.4605   34.4187    5.4280 C   0  0  2  0  0  0  0  0  0  0  0  0
   22.4335   33.7591    4.4435 C   0  0  1  0  0  0  0  0  0  0  0  0
   23.1425   32.9333    3.3209 C   0  0  1  0  0  0  0  0  0  0  0  0
   24.9338   32.9138    1.6378 O   0  0  0  0  0  0  0  0  0  0  0  0
   26.0346   33.2534    4.3023 O   0  0  0  0  0  0  0  0  0  0  0  0
   25.6290   35.6657    5.5670 O   0  0  0  0  0  0  0  0  0  0  0  0
   22.7322   35.3600    6.2292 O   0  0  0  0  0  0  0  0  0  0  0  0
   21.5990   32.8668    5.2128 O   0  0  0  0  0  0  0  0  0  0  0  0
   22.2004   32.4403    2.3405 O   0  0  0  0  0  0  0  0  0  0  0  0
   25.3916   33.5676    0.2069 P   0  0  0  0  0  0  0  0  0  0  0  0
   24.1484   34.0179   -0.5182 O   0  0  0  0  0  0  0  0  0  0  0  0
   26.1398   32.4296   -0.5082 O   0  0  0  0  0  0  0  0  0  0  0  0
   26.3373   34.7218    0.5734 O   0  0  0  0  0  0  0  0  0  0  0  0
   23.1476   35.7643    7.7488 P   0  0  0  0  0  0  0  0  0  0  0  0
   23.6094   34.5261    8.4874 O   0  0  0  0  0  0  0  0  0  0  0  0
   24.3253   36.7370    7.5269 O   0  0  0  0  0  0  0  0  0  0  0  0
   21.9347   36.4656    8.3437 O   0  0  0  0  0  0  0  0  0  0  0  0
   19.9867   32.7366    4.9896 P   0  0  0  0  0  0  0  0  0  0  0  0
   19.5720   31.6219    5.9523 O   0  0  0  0  0  0  0  0  0  0  0  0
   19.8502   32.2898    3.5287 O   0  0  0  0  0  0  0  0  0  0  0  0
   19.3305   34.0692    5.2642 O   0  0  0  0  0  0  0  0  0  0  0  0
   23.7978   34.5853    2.0804 H   0  0  0  0  0  0  0  0  0  0  0  0
   26.0414   34.8835    3.0995 H   0  0  0  0  0  0  0  0  0  0  0  0
   24.1713   36.0642    4.1852 H   0  0  0  0  0  0  0  0  0  0  0  0
   23.8918   33.6505    6.0783 H   0  0  0  0  0  0  0  0  0  0  0  0
   21.8019   34.5382    3.9985 H   0  0  0  0  0  0  0  0  0  0  0  0
   23.5711   32.0256    3.7575 H   0  0  0  0  0  0  0  0  0  0  0  0
   26.5272   33.7682    4.9690 H   0  0  0  0  0  0  0  0  0  0  0  0
   25.1227   36.1242    6.3060 H   0  0  0  0  0  0  0  0  0  0  0  0
   21.3914   32.1532    2.8452 H   0  0  0  0  0  0  0  0  0  0  0  0
  1  7  1  0  0  0  0
  1  6  1  0  0  0  0
  1  2  1  0  0  0  0
  1 25  1  6  0  0  0
  2  8  1  0  0  0  0
  2  3  1  0  0  0  0
  2 26  1  6  0  0  0
  3  9  1  0  0  0  0
  3  4  1  0  0  0  0
  3 27  1  6  0  0  0
  4 10  1  0  0  0  0
  4  5  1  0  0  0  0
  4 28  1  1  0  0  0
  5 11  1  0  0  0  0
  5  6  1  0  0  0  0
  5 29  1  6  0  0  0
  6 12  1  0  0  0  0
  6 30  1  1  0  0  0
  7 13  1  0  0  0  0
  8 31  1  0  0  0  0
  9 32  1  0  0  0  0
 10 17  1  0  0  0  0
 11 21  1  0  0  0  0
 12 33  1  0  0  0  0
 13 16  2  0  0  0  0
 13 15  1  0  0  0  0
 13 14  1  0  0  0  0
 17 20  2  0  0  0  0
 17 19  1  0  0  0  0
 17 18  1  0  0  0  0
 21 24  2  0  0  0  0
 21 23  1  0  0  0  0
 21 22  1  0  0  0  0
M  END
$$$$
