I48
 OpenBabel04041917123D

 49 51  0  0  0  0  0  0  0  0999 V2000
   45.7427   56.1860   40.4657 N   0  3  0  0  0  0  0  0  0  0  0  0
   46.9687   55.6552   40.5130 C   0  0  0  0  0  0  0  0  0  0  0  0
   48.0654   56.5112   40.5004 C   0  0  0  0  0  0  0  0  0  0  0  0
   47.9167   57.9006   40.4653 C   0  0  0  0  0  0  0  0  0  0  0  0
   46.6152   58.3945   40.4058 C   0  0  0  0  0  0  0  0  0  0  0  0
   45.5209   57.5049   40.4519 C   0  0  0  0  0  0  0  0  0  0  0  0
   48.9937   58.7602   40.4619 N   0  0  0  0  0  0  0  0  0  0  0  0
   50.3657   58.2740   40.4404 C   0  0  0  0  0  0  0  0  0  0  0  0
   51.3180   58.9857   41.4169 C   0  0  0  0  0  0  0  0  0  0  0  0
   50.8096   58.9307   42.7556 O   0  0  0  0  0  0  0  0  0  0  0  0
   51.6804   59.2593   43.7606 C   0  0  0  0  0  0  0  0  0  0  0  0
   51.6135   58.5219   44.9432 C   0  0  0  0  0  0  0  0  0  0  0  0
   52.2669   59.0077   46.1047 C   0  0  0  0  0  0  0  0  0  0  0  0
   53.0029   60.1838   46.0614 C   0  0  0  0  0  0  0  0  0  0  0  0
   53.1920   60.8293   44.8388 C   0  0  0  0  0  0  0  0  0  0  0  0
   52.5326   60.3501   43.6918 C   0  0  0  0  0  0  0  0  0  0  0  0
   54.1732   61.9503   44.7071 C   0  0  0  0  0  0  0  0  0  0  0  0
   52.2358   58.2751   47.3102 N   0  0  0  0  0  0  0  0  0  0  0  0
   50.8403   58.3123   48.2645 S   0  0  0  0  0  0  0  0  0  0  0  0
   51.1933   57.4625   49.3934 O   0  0  0  0  0  0  0  0  0  0  0  0
   49.6805   58.0296   47.4736 O   0  0  0  0  0  0  0  0  0  0  0  0
   50.7188   59.9304   48.9678 C   0  0  0  0  0  0  0  0  0  0  0  0
   49.4562   60.5291   48.9258 C   0  0  0  0  0  0  0  0  0  0  0  0
   49.3350   61.8873   49.1766 C   0  0  0  0  0  0  0  0  0  0  0  0
   50.4011   62.5836   49.7466 C   0  0  0  0  0  0  0  0  0  0  0  0
   51.6340   61.9375   49.9327 C   0  0  0  0  0  0  0  0  0  0  0  0
   51.7984   60.6161   49.5209 C   0  0  0  0  0  0  0  0  0  0  0  0
   47.1134   54.5768   40.5716 H   0  0  0  0  0  0  0  0  0  0  0  0
   49.0336   56.0366   40.4954 H   0  0  0  0  0  0  0  0  0  0  0  0
   46.4446   59.4563   40.3073 H   0  0  0  0  0  0  0  0  0  0  0  0
   44.5145   57.9027   40.4868 H   0  0  0  0  0  0  0  0  0  0  0  0
   48.8633   59.7741   40.5210 H   0  0  0  0  0  0  0  0  0  0  0  0
   50.7403   58.3363   39.4120 H   0  0  0  0  0  0  0  0  0  0  0  0
   50.4128   57.2254   40.7125 H   0  0  0  0  0  0  0  0  0  0  0  0
   51.4564   60.0100   41.0535 H   0  0  0  0  0  0  0  0  0  0  0  0
   52.2794   58.4523   41.3959 H   0  0  0  0  0  0  0  0  0  0  0  0
   51.1201   57.5640   44.9902 H   0  0  0  0  0  0  0  0  0  0  0  0
   53.5346   60.5341   46.9506 H   0  0  0  0  0  0  0  0  0  0  0  0
   52.7447   60.8334   42.7419 H   0  0  0  0  0  0  0  0  0  0  0  0
   54.5464   62.2725   45.6856 H   0  0  0  0  0  0  0  0  0  0  0  0
   53.7304   62.8234   44.2064 H   0  0  0  0  0  0  0  0  0  0  0  0
   55.0153   61.5925   44.1167 H   0  0  0  0  0  0  0  0  0  0  0  0
   53.0290   57.6602   47.5553 H   0  0  0  0  0  0  0  0  0  0  0  0
   48.5761   59.9164   48.7639 H   0  0  0  0  0  0  0  0  0  0  0  0
   48.4172   62.4056   48.9093 H   0  0  0  0  0  0  0  0  0  0  0  0
   50.2605   63.6023   50.0830 H   0  0  0  0  0  0  0  0  0  0  0  0
   52.4687   62.4873   50.3615 H   0  0  0  0  0  0  0  0  0  0  0  0
   52.7355   60.0921   49.7017 H   0  0  0  0  0  0  0  0  0  0  0  0
   44.9118   55.5338   40.4155 H   0  0  0  0  0  0  0  0  0  0  0  0
  1  6  2  0  0  0  0
  1  2  1  0  0  0  0
  1 49  1  0  0  0  0
  2  3  2  0  0  0  0
  2 28  1  0  0  0  0
  3  4  1  0  0  0  0
  3 29  1  0  0  0  0
  4  7  1  0  0  0  0
  4  5  2  0  0  0  0
  5  6  1  0  0  0  0
  5 30  1  0  0  0  0
  6 31  1  0  0  0  0
  7  8  1  0  0  0  0
  7 32  1  0  0  0  0
  8  9  1  0  0  0  0
  8 33  1  0  0  0  0
  8 34  1  0  0  0  0
  9 10  1  0  0  0  0
  9 35  1  0  0  0  0
  9 36  1  0  0  0  0
 10 11  1  0  0  0  0
 11 16  2  0  0  0  0
 11 12  1  0  0  0  0
 12 13  2  0  0  0  0
 12 37  1  0  0  0  0
 13 18  1  0  0  0  0
 13 14  1  0  0  0  0
 14 15  2  0  0  0  0
 14 38  1  0  0  0  0
 15 17  1  0  0  0  0
 15 16  1  0  0  0  0
 16 39  1  0  0  0  0
 17 40  1  0  0  0  0
 17 41  1  0  0  0  0
 17 42  1  0  0  0  0
 18 19  1  0  0  0  0
 18 43  1  0  0  0  0
 19 22  1  0  0  0  0
 19 21  2  0  0  0  0
 19 20  2  0  0  0  0
 22 27  2  0  0  0  0
 22 23  1  0  0  0  0
 23 24  2  0  0  0  0
 23 44  1  0  0  0  0
 24 25  1  0  0  0  0
 24 45  1  0  0  0  0
 25 26  2  0  0  0  0
 25 46  1  0  0  0  0
 26 27  1  0  0  0  0
 26 47  1  0  0  0  0
 27 48  1  0  0  0  0
M  CHG  1   1   1
M  END
$$$$
