I4B
 OpenBabel04041913513D

 24 24  0  0  0  0  0  0  0  0999 V2000
   27.4110    6.7269    3.4182 C   0  0  0  0  0  0  0  0  0  0  0  0
   27.3646    7.2536    4.7132 C   0  0  0  0  0  0  0  0  0  0  0  0
   26.5869    6.6352    5.6889 C   0  0  0  0  0  0  0  0  0  0  0  0
   25.8504    5.4963    5.3749 C   0  0  0  0  0  0  0  0  0  0  0  0
   25.9016    4.9595    4.0898 C   0  0  0  0  0  0  0  0  0  0  0  0
   26.6870    5.5707    3.1109 C   0  0  0  0  0  0  0  0  0  0  0  0
   28.1439    7.4734    2.3370 C   0  0  0  0  0  0  0  0  0  0  0  0
   27.1675    8.3359    1.5156 C   0  0  0  0  0  0  0  0  0  0  0  0
   27.8743    8.8201    0.2551 C   0  0  0  0  0  0  0  0  0  0  0  0
   26.6538    9.5318    2.3231 C   0  0  0  0  0  0  0  0  0  0  0  0
   27.8939    8.1705    4.9520 H   0  0  0  0  0  0  0  0  0  0  0  0
   26.5376    7.0630    6.6875 H   0  0  0  0  0  0  0  0  0  0  0  0
   25.2253    5.0325    6.1305 H   0  0  0  0  0  0  0  0  0  0  0  0
   25.3163    4.0797    3.8411 H   0  0  0  0  0  0  0  0  0  0  0  0
   26.6995    5.1626    2.1047 H   0  0  0  0  0  0  0  0  0  0  0  0
   28.6563    6.7475    1.6942 H   0  0  0  0  0  0  0  0  0  0  0  0
   28.9302    8.0999    2.7733 H   0  0  0  0  0  0  0  0  0  0  0  0
   26.3018    7.7336    1.2103 H   0  0  0  0  0  0  0  0  0  0  0  0
   27.2040    9.4325   -0.3579 H   0  0  0  0  0  0  0  0  0  0  0  0
   28.1988    7.9661   -0.3504 H   0  0  0  0  0  0  0  0  0  0  0  0
   28.7567    9.4158    0.5064 H   0  0  0  0  0  0  0  0  0  0  0  0
   26.1120    9.2120    3.2189 H   0  0  0  0  0  0  0  0  0  0  0  0
   25.9594   10.1336    1.7288 H   0  0  0  0  0  0  0  0  0  0  0  0
   27.4811   10.1759    2.6409 H   0  0  0  0  0  0  0  0  0  0  0  0
  1  2  2  0  0  0  0
  1  6  1  0  0  0  0
  1  7  1  0  0  0  0
  2  3  1  0  0  0  0
  2 11  1  0  0  0  0
  3  4  2  0  0  0  0
  3 12  1  0  0  0  0
  4  5  1  0  0  0  0
  4 13  1  0  0  0  0
  5  6  2  0  0  0  0
  5 14  1  0  0  0  0
  6 15  1  0  0  0  0
  7  8  1  0  0  0  0
  7 16  1  0  0  0  0
  7 17  1  0  0  0  0
  8  9  1  0  0  0  0
  8 10  1  0  0  0  0
  8 18  1  0  0  0  0
  9 19  1  0  0  0  0
  9 20  1  0  0  0  0
  9 21  1  0  0  0  0
 10 22  1  0  0  0  0
 10 23  1  0  0  0  0
 10 24  1  0  0  0  0
M  END
$$$$
