IDD
 OpenBabel04041917343D

 37 39  0  0  1  0  0  0  0  0999 V2000
   27.0961   29.1228   35.9931 C   0  0  0  0  0  0  0  0  0  0  0  0
   27.7210   29.3501   37.2213 C   0  0  0  0  0  0  0  0  0  0  0  0
   28.4403   30.5240   37.4100 C   0  0  0  0  0  0  0  0  0  0  0  0
   28.5188   31.4602   36.3817 C   0  0  0  0  0  0  0  0  0  0  0  0
   27.8904   31.2274   35.1580 C   0  0  0  0  0  0  0  0  0  0  0  0
   27.1799   30.0517   34.9527 C   0  0  0  0  0  0  0  0  0  0  0  0
   25.2180   26.0190   36.3355 C   0  0  2  0  0  0  0  0  0  0  0  0
   24.4981   24.9499   37.1046 C   0  0  1  0  0  0  0  0  0  0  0  0
   23.9761   23.8426   36.1815 C   0  0  2  0  0  0  0  0  0  0  0  0
   23.4812   24.4338   34.8433 C   0  0  1  0  0  0  0  0  0  0  0  0
   24.6636   25.1014   34.1010 C   0  0  1  0  0  0  0  0  0  0  0  0
   24.2118   25.7007   32.7481 C   0  0  0  0  0  0  0  0  0  0  0  0
   25.3229   24.4249   38.1462 O   0  0  0  0  0  0  0  0  0  0  0  0
   22.8848   23.1716   36.8148 O   0  0  0  0  0  0  0  0  0  0  0  0
   22.9042   23.4055   34.0465 O   0  0  0  0  0  0  0  0  0  0  0  0
   25.2865   26.1002   34.9932 N   0  3  1  0  0  0  0  0  0  0  0  0
   23.3487   26.8178   32.9525 O   0  0  0  0  0  0  0  0  0  0  0  0
   25.9011   27.0329   36.8329 N   0  3  0  0  0  0  0  0  0  0  0  0
   26.3490   27.8686   35.8250 C   0  0  2  0  0  0  0  0  0  0  0  0
   25.9550   27.2670   34.6592 C   0  0  0  0  0  0  0  0  0  0  0  0
   27.6898   28.6190   38.0224 H   0  0  0  0  0  0  0  0  0  0  0  0
   28.9372   30.7021   38.3588 H   0  0  0  0  0  0  0  0  0  0  0  0
   29.0745   32.3822   36.5391 H   0  0  0  0  0  0  0  0  0  0  0  0
   27.9476   31.9760   34.3681 H   0  0  0  0  0  0  0  0  0  0  0  0
   26.6787   29.9082   34.0005 H   0  0  0  0  0  0  0  0  0  0  0  0
   23.6671   25.4715   37.5878 H   0  0  0  0  0  0  0  0  0  0  0  0
   24.7515   23.0942   35.9935 H   0  0  0  0  0  0  0  0  0  0  0  0
   22.6918   25.1700   35.0432 H   0  0  0  0  0  0  0  0  0  0  0  0
   25.4288   24.3457   33.8807 H   0  0  0  0  0  0  0  0  0  0  0  0
   23.7125   24.9582   32.1159 H   0  0  0  0  0  0  0  0  0  0  0  0
   25.0806   26.0621   32.1867 H   0  0  0  0  0  0  0  0  0  0  0  0
   26.0998   23.9815   37.7580 H   0  0  0  0  0  0  0  0  0  0  0  0
   23.2013   22.8337   37.6776 H   0  0  0  0  0  0  0  0  0  0  0  0
   22.2065   22.9873   34.5950 H   0  0  0  0  0  0  0  0  0  0  0  0
   22.5040   26.4890   33.3106 H   0  0  0  0  0  0  0  0  0  0  0  0
   26.0950   27.5345   33.6221 H   0  0  0  0  0  0  0  0  0  0  0  0
   25.9995   27.2101   37.8317 H   0  0  0  0  0  0  0  0  0  0  0  0
  1  2  2  0  0  0  0
  1  6  1  0  0  0  0
  2  3  1  0  0  0  0
  2 21  1  0  0  0  0
  3  4  2  0  0  0  0
  3 22  1  0  0  0  0
  4  5  1  0  0  0  0
  4 23  1  0  0  0  0
  5  6  2  0  0  0  0
  5 24  1  0  0  0  0
  6 25  1  0  0  0  0
  7  8  1  0  0  0  0
  7 16  1  0  0  0  0
  7 18  1  1  0  0  0
  8  9  1  0  0  0  0
  8 13  1  0  0  0  0
  8 26  1  1  0  0  0
  9 10  1  0  0  0  0
  9 14  1  0  0  0  0
  9 27  1  6  0  0  0
 10 11  1  0  0  0  0
 10 15  1  0  0  0  0
 10 28  1  1  0  0  0
 11 12  1  0  0  0  0
 11 16  1  0  0  0  0
 11 29  1  6  0  0  0
 12 17  1  0  0  0  0
 12 30  1  0  0  0  0
 12 31  1  0  0  0  0
 13 32  1  0  0  0  0
 14 33  1  0  0  0  0
 15 34  1  0  0  0  0
 16 20  1  6  0  0  0
 17 35  1  0  0  0  0
 18 19  1  0  0  0  0
 18 37  1  0  0  0  0
 19  1  1  6  0  0  0
 19 20  1  0  0  0  0
 20 36  1  0  0  0  0
M  CHG  2  16   1  18   1
M  END
$$$$
