IFL
 OpenBabel04041917143D

 22 22  0  0  1  0  0  0  0  0999 V2000
   73.8481   13.6979   34.8322 O   0  0  0  0  0  0  0  0  0  0  0  0
   74.1658   12.7595   33.7912 C   0  0  1  0  0  0  0  0  0  0  0  0
   73.1069   12.8767   32.6801 C   0  0  2  0  0  0  0  0  0  0  0  0
   72.0860   11.8802   32.8840 O   0  0  0  0  0  0  0  0  0  0  0  0
   73.6205   12.6926   31.2438 C   0  0  0  0  0  0  0  0  0  0  0  0
   74.9074   12.2825   31.0661 N   0  0  0  0  0  0  0  0  0  0  0  0
   75.8454   12.0667   32.1364 C   0  0  0  0  0  0  0  0  0  0  0  0
   75.5851   13.0513   33.2749 C   0  0  2  0  0  0  0  0  0  0  0  0
   76.6859   12.9450   34.3324 C   0  0  0  0  0  0  0  0  0  0  0  0
   76.7703   11.6414   34.8856 O   0  0  0  0  0  0  0  0  0  0  0  0
   72.8840   12.8468   30.2750 O   0  0  0  0  0  0  0  0  0  0  0  0
   74.3739   13.4880   35.6216 H   0  0  0  0  0  0  0  0  0  0  0  0
   74.1129   11.7600   34.2382 H   0  0  0  0  0  0  0  0  0  0  0  0
   72.6154   13.8514   32.7314 H   0  0  0  0  0  0  0  0  0  0  0  0
   71.4804   11.9732   32.1211 H   0  0  0  0  0  0  0  0  0  0  0  0
   75.1576   12.0369   30.1145 H   0  0  0  0  0  0  0  0  0  0  0  0
   76.8497   12.2029   31.7231 H   0  0  0  0  0  0  0  0  0  0  0  0
   75.7487   11.0262   32.4682 H   0  0  0  0  0  0  0  0  0  0  0  0
   75.6100   14.0804   32.8958 H   0  0  0  0  0  0  0  0  0  0  0  0
   76.5526   13.6712   35.1408 H   0  0  0  0  0  0  0  0  0  0  0  0
   77.6591   13.1629   33.8690 H   0  0  0  0  0  0  0  0  0  0  0  0
   75.9769   11.4707   35.4205 H   0  0  0  0  0  0  0  0  0  0  0  0
  1  2  1  0  0  0  0
  1 12  1  0  0  0  0
  2  3  1  0  0  0  0
  2  8  1  0  0  0  0
  2 13  1  1  0  0  0
  3  4  1  0  0  0  0
  3  5  1  0  0  0  0
  3 14  1  1  0  0  0
  4 15  1  0  0  0  0
  5  6  1  0  0  0  0
  5 11  2  0  0  0  0
  6  7  1  0  0  0  0
  6 16  1  0  0  0  0
  7  8  1  0  0  0  0
  7 17  1  0  0  0  0
  7 18  1  0  0  0  0
  8  9  1  0  0  0  0
  8 19  1  6  0  0  0
  9 10  1  0  0  0  0
  9 20  1  0  0  0  0
  9 21  1  0  0  0  0
 10 22  1  0  0  0  0
M  END
$$$$
