IFL
 OpenBabel04041917143D

 22 22  0  0  1  0  0  0  0  0999 V2000
   -1.5802   10.6298    6.8017 O   0  0  0  0  0  0  0  0  0  0  0  0
   -1.1167   10.5583    8.1523 C   0  0  1  0  0  0  0  0  0  0  0  0
   -0.4194   11.8856    8.4436 C   0  0  2  0  0  0  0  0  0  0  0  0
    0.8190   12.0118    7.7163 O   0  0  0  0  0  0  0  0  0  0  0  0
   -0.1159   12.0481    9.9128 C   0  0  0  0  0  0  0  0  0  0  0  0
   -0.6861   11.2010   10.8190 N   0  0  0  0  0  0  0  0  0  0  0  0
   -1.5928   10.1085   10.4978 C   0  0  0  0  0  0  0  0  0  0  0  0
   -2.2683   10.3776    9.1623 C   0  0  2  0  0  0  0  0  0  0  0  0
   -3.2313    9.2543    8.8244 C   0  0  0  0  0  0  0  0  0  0  0  0
   -2.5700    7.9996    8.9103 O   0  0  0  0  0  0  0  0  0  0  0  0
    0.6353   12.9677   10.2957 O   0  0  0  0  0  0  0  0  0  0  0  0
   -2.0079    9.7952    6.5479 H   0  0  0  0  0  0  0  0  0  0  0  0
   -0.4120    9.7200    8.2333 H   0  0  0  0  0  0  0  0  0  0  0  0
   -1.0782   12.7023    8.1179 H   0  0  0  0  0  0  0  0  0  0  0  0
    1.1995   12.8795    7.9751 H   0  0  0  0  0  0  0  0  0  0  0  0
   -0.4258   11.3497   11.7862 H   0  0  0  0  0  0  0  0  0  0  0  0
   -2.3233   10.0232   11.3116 H   0  0  0  0  0  0  0  0  0  0  0  0
   -1.0110    9.1753   10.4756 H   0  0  0  0  0  0  0  0  0  0  0  0
   -2.8518   11.3056    9.2242 H   0  0  0  0  0  0  0  0  0  0  0  0
   -3.6386    9.3746    7.8165 H   0  0  0  0  0  0  0  0  0  0  0  0
   -4.0768    9.2449    9.5266 H   0  0  0  0  0  0  0  0  0  0  0  0
   -1.8161    8.0043    8.2944 H   0  0  0  0  0  0  0  0  0  0  0  0
  1  2  1  0  0  0  0
  1 12  1  0  0  0  0
  2  3  1  0  0  0  0
  2  8  1  0  0  0  0
  2 13  1  1  0  0  0
  3  4  1  0  0  0  0
  3  5  1  0  0  0  0
  3 14  1  6  0  0  0
  4 15  1  0  0  0  0
  5  6  1  0  0  0  0
  5 11  2  0  0  0  0
  6  7  1  0  0  0  0
  6 16  1  0  0  0  0
  7  8  1  0  0  0  0
  7 17  1  0  0  0  0
  7 18  1  0  0  0  0
  8  9  1  0  0  0  0
  8 19  1  1  0  0  0
  9 10  1  0  0  0  0
  9 20  1  0  0  0  0
  9 21  1  0  0  0  0
 10 22  1  0  0  0  0
M  END
$$$$
