IGN
 OpenBabel04041915143D

 70 71  0  0  1  0  0  0  0  0999 V2000
   43.4509   22.9904   50.9159 C   0  0  0  0  0  0  0  0  0  0  0  0
   44.6001   23.4436   51.1383 O   0  0  0  0  0  0  0  0  0  0  0  0
   43.2796   21.6927   50.5001 N   0  0  0  0  0  0  0  0  0  0  0  0
   44.4368   20.8279   50.3692 C   0  0  0  0  0  0  0  0  0  0  0  0
   44.2540   19.5547   51.1756 C   0  0  0  0  0  0  0  0  0  0  0  0
   45.5868   19.0716   51.6961 C   0  0  0  0  0  0  0  0  0  0  0  0
   45.4090   17.9818   52.6478 N   0  0  0  0  0  0  0  0  0  0  0  0
   45.8737   18.0566   53.8945 C   0  0  0  0  0  0  0  0  0  0  0  0
   46.3277   19.1738   54.4193 N   0  0  0  0  0  0  0  0  0  0  0  0
   45.8847   16.9637   54.6368 N   0  0  0  0  0  0  0  0  0  0  0  0
   42.3939   24.9123   52.0770 N   0  0  0  0  0  0  0  0  0  0  0  0
   42.2168   23.8846   51.0389 C   0  0  1  0  0  0  0  0  0  0  0  0
   41.9995   24.5107   49.6661 C   0  0  0  0  0  0  0  0  0  0  0  0
   40.8484   25.5107   49.6953 C   0  0  0  0  0  0  0  0  0  0  0  0
   41.1814   26.6096   50.6983 C   0  0  0  0  0  0  0  0  0  0  0  0
   41.4543   26.0194   52.0552 C   0  0  0  0  0  0  0  0  0  0  0  0
   43.0380   23.1805   53.4822 O   0  0  0  0  0  0  0  0  0  0  0  0
   42.6626   24.3255   53.3254 C   0  0  0  0  0  0  0  0  0  0  0  0
   42.3505   25.1768   54.5450 C   0  0  1  0  0  0  0  0  0  0  0  0
   41.2501   24.5053   55.3596 C   0  0  0  0  0  0  0  0  0  0  0  0
   39.0521   24.5277   56.5404 C   0  0  0  0  0  0  0  0  0  0  0  0
   40.0984   25.4257   55.8352 C   0  0  0  0  0  0  0  0  0  0  0  0
   39.4691   26.2377   54.6856 C   0  0  0  0  0  0  0  0  0  0  0  0
   38.1177   26.8550   55.0370 C   0  0  0  0  0  0  0  0  0  0  0  0
   37.1684   25.7682   55.5134 C   0  0  0  0  0  0  0  0  0  0  0  0
   37.7222   25.2221   56.8177 C   0  0  0  0  0  0  0  0  0  0  0  0
   43.5037   25.3214   55.4041 N   0  3  0  0  0  0  0  0  0  0  0  0
   44.8840   24.9034   54.9493 C   0  0  0  0  0  0  0  0  0  0  0  0
   45.8229   24.7083   56.1664 C   0  0  0  0  0  0  0  0  0  0  0  0
   45.1665   24.7283   57.2657 O   0  0  0  0  0  0  0  0  0  0  0  0
   47.0113   24.5769   55.9156 O   0  0  0  0  0  0  0  0  0  0  0  0
   42.3515   21.3290   50.3104 H   0  0  0  0  0  0  0  0  0  0  0  0
   45.3271   21.3674   50.7150 H   0  0  0  0  0  0  0  0  0  0  0  0
   44.5729   20.5939   49.3080 H   0  0  0  0  0  0  0  0  0  0  0  0
   43.8080   18.7747   50.5474 H   0  0  0  0  0  0  0  0  0  0  0  0
   43.5746   19.7338   52.0199 H   0  0  0  0  0  0  0  0  0  0  0  0
   46.1176   19.8932   52.1747 H   0  0  0  0  0  0  0  0  0  0  0  0
   46.2214   18.7026   50.8871 H   0  0  0  0  0  0  0  0  0  0  0  0
   44.9198   17.1388   52.3751 H   0  0  0  0  0  0  0  0  0  0  0  0
   46.6859   19.2070   55.3648 H   0  0  0  0  0  0  0  0  0  0  0  0
   45.5623   16.0929   54.2495 H   0  0  0  0  0  0  0  0  0  0  0  0
   46.2630   17.0014   55.5703 H   0  0  0  0  0  0  0  0  0  0  0  0
   41.3456   23.2886   51.3392 H   0  0  0  0  0  0  0  0  0  0  0  0
   41.8064   23.7161   48.9373 H   0  0  0  0  0  0  0  0  0  0  0  0
   42.9240   25.0273   49.3655 H   0  0  0  0  0  0  0  0  0  0  0  0
   39.9162   25.0024   49.9838 H   0  0  0  0  0  0  0  0  0  0  0  0
   40.6963   25.9394   48.6966 H   0  0  0  0  0  0  0  0  0  0  0  0
   40.3537   27.3298   50.7701 H   0  0  0  0  0  0  0  0  0  0  0  0
   42.0741   27.1553   50.3698 H   0  0  0  0  0  0  0  0  0  0  0  0
   41.7856   26.8288   52.7163 H   0  0  0  0  0  0  0  0  0  0  0  0
   40.5350   25.6020   52.4631 H   0  0  0  0  0  0  0  0  0  0  0  0
   42.0942   26.1859   54.2894 H   0  0  0  0  0  0  0  0  0  0  0  0
   41.6822   24.0305   56.2583 H   0  0  0  0  0  0  0  0  0  0  0  0
   40.8138   23.6929   54.7657 H   0  0  0  0  0  0  0  0  0  0  0  0
   39.4642   24.1622   57.4881 H   0  0  0  0  0  0  0  0  0  0  0  0
   38.8492   23.6540   55.9025 H   0  0  0  0  0  0  0  0  0  0  0  0
   40.5067   26.1378   56.5666 H   0  0  0  0  0  0  0  0  0  0  0  0
   39.3119   25.5727   53.8307 H   0  0  0  0  0  0  0  0  0  0  0  0
   40.1492   27.0443   54.3816 H   0  0  0  0  0  0  0  0  0  0  0  0
   37.6841   27.3646   54.1692 H   0  0  0  0  0  0  0  0  0  0  0  0
   38.2487   27.5944   55.8375 H   0  0  0  0  0  0  0  0  0  0  0  0
   37.1131   24.9649   54.7648 H   0  0  0  0  0  0  0  0  0  0  0  0
   36.1608   26.1711   55.6605 H   0  0  0  0  0  0  0  0  0  0  0  0
   37.8735   26.0470   57.5268 H   0  0  0  0  0  0  0  0  0  0  0  0
   37.0068   24.5195   57.2608 H   0  0  0  0  0  0  0  0  0  0  0  0
   43.6015   26.2829   55.7385 H   0  0  0  0  0  0  0  0  0  0  0  0
   45.2503   25.6879   54.2827 H   0  0  0  0  0  0  0  0  0  0  0  0
   44.8077   23.9650   54.4028 H   0  0  0  0  0  0  0  0  0  0  0  0
   46.3195   20.0490   53.9112 H   0  0  0  0  0  0  0  0  0  0  0  0
   43.3797   24.7512   56.2572 H   0  0  0  0  0  0  0  0  0  0  0  0
  1  2  2  0  0  0  0
  1  3  1  0  0  0  0
  1 12  1  0  0  0  0
  3  4  1  0  0  0  0
  3 32  1  0  0  0  0
  4  5  1  0  0  0  0
  4 33  1  0  0  0  0
  4 34  1  0  0  0  0
  5  6  1  0  0  0  0
  5 35  1  0  0  0  0
  5 36  1  0  0  0  0
  6  7  1  0  0  0  0
  6 37  1  0  0  0  0
  6 38  1  0  0  0  0
  7  8  1  0  0  0  0
  7 39  1  0  0  0  0
  8  9  2  0  0  0  0
  8 10  1  0  0  0  0
  9 40  1  0  0  0  0
  9 69  1  0  0  0  0
 10 41  1  0  0  0  0
 10 42  1  0  0  0  0
 11 12  1  0  0  0  0
 11 16  1  0  0  0  0
 11 18  1  0  0  0  0
 12 13  1  0  0  0  0
 12 43  1  1  0  0  0
 13 14  1  0  0  0  0
 13 44  1  0  0  0  0
 13 45  1  0  0  0  0
 14 15  1  0  0  0  0
 14 46  1  0  0  0  0
 14 47  1  0  0  0  0
 15 16  1  0  0  0  0
 15 48  1  0  0  0  0
 15 49  1  0  0  0  0
 16 50  1  0  0  0  0
 16 51  1  0  0  0  0
 17 18  2  0  0  0  0
 18 19  1  0  0  0  0
 19 20  1  0  0  0  0
 19 27  1  0  0  0  0
 19 52  1  6  0  0  0
 20 22  1  0  0  0  0
 20 53  1  0  0  0  0
 20 54  1  0  0  0  0
 21 22  1  0  0  0  0
 21 26  1  0  0  0  0
 21 55  1  0  0  0  0
 21 56  1  0  0  0  0
 22 23  1  0  0  0  0
 22 57  1  0  0  0  0
 23 24  1  0  0  0  0
 23 58  1  0  0  0  0
 23 59  1  0  0  0  0
 24 25  1  0  0  0  0
 24 60  1  0  0  0  0
 24 61  1  0  0  0  0
 25 26  1  0  0  0  0
 25 62  1  0  0  0  0
 25 63  1  0  0  0  0
 26 64  1  0  0  0  0
 26 65  1  0  0  0  0
 27 28  1  0  0  0  0
 27 66  1  0  0  0  0
 27 70  1  0  0  0  0
 28 29  1  0  0  0  0
 28 67  1  0  0  0  0
 28 68  1  0  0  0  0
 29 30  2  0  0  0  0
 29 31  1  0  0  0  0
M  CHG  1  27   1
M  END
$$$$
