IGN
 OpenBabel04041915153D

 70 71  0  0  1  0  0  0  0  0999 V2000
   16.1433  -11.6564   20.2167 C   0  0  0  0  0  0  0  0  0  0  0  0
   15.4485  -12.5688   19.8284 O   0  0  0  0  0  0  0  0  0  0  0  0
   15.6424  -10.3786   20.3963 N   0  0  0  0  0  0  0  0  0  0  0  0
   14.2270  -10.0317   20.1969 C   0  0  0  0  0  0  0  0  0  0  0  0
   13.5036   -9.7746   21.5212 C   0  0  0  0  0  0  0  0  0  0  0  0
   12.0116  -10.0895   21.4273 C   0  0  0  0  0  0  0  0  0  0  0  0
   11.6014  -11.1237   22.4195 N   0  0  0  0  0  0  0  0  0  0  0  0
   11.0205  -10.8927   23.6277 C   0  0  0  0  0  0  0  0  0  0  0  0
   10.6922  -11.9136   24.4330 N   0  0  0  0  0  0  0  0  0  0  0  0
   10.7642   -9.6536   24.0705 N   0  0  0  0  0  0  0  0  0  0  0  0
   17.9739  -13.2612   21.0540 N   0  0  0  0  0  0  0  0  0  0  0  0
   17.6883  -11.8771   20.4886 C   0  0  1  0  0  0  0  0  0  0  0  0
   18.4219  -11.6164   19.1541 C   0  0  0  0  0  0  0  0  0  0  0  0
   19.8778  -12.0590   19.1932 C   0  0  0  0  0  0  0  0  0  0  0  0
   19.9811  -13.5593   19.4352 C   0  0  0  0  0  0  0  0  0  0  0  0
   18.8795  -14.1683   20.3151 C   0  0  0  0  0  0  0  0  0  0  0  0
   16.5735  -12.8829   22.8491 O   0  0  0  0  0  0  0  0  0  0  0  0
   17.3584  -13.6256   22.2712 C   0  0  0  0  0  0  0  0  0  0  0  0
   17.5805  -15.0432   22.9046 C   0  0  1  0  0  0  0  0  0  0  0  0
   17.9498  -14.9766   24.4309 C   0  0  0  0  0  0  0  0  0  0  0  0
   20.4362  -14.8223   23.5815 C   0  0  0  0  0  0  0  0  0  0  0  0
   19.4681  -14.7354   24.7833 C   0  0  0  0  0  0  0  0  0  0  0  0
   19.7249  -13.3893   25.5195 C   0  0  0  0  0  0  0  0  0  0  0  0
   21.2003  -13.2698   25.9669 C   0  0  0  0  0  0  0  0  0  0  0  0
   22.1447  -13.3844   24.7597 C   0  0  0  0  0  0  0  0  0  0  0  0
   21.9081  -14.7077   24.0193 C   0  0  0  0  0  0  0  0  0  0  0  0
   16.3035  -15.8237   22.8415 N   0  3  0  0  0  0  0  0  0  0  0  0
   15.6501  -16.2729   21.5406 C   0  0  0  0  0  0  0  0  0  0  0  0
   14.1914  -16.8173   21.7556 C   0  0  0  0  0  0  0  0  0  0  0  0
   13.8730  -16.9049   22.9960 O   0  0  0  0  0  0  0  0  0  0  0  0
   13.5367  -17.0347   20.7326 O   0  0  0  0  0  0  0  0  0  0  0  0
   16.2659   -9.6564   20.7138 H   0  0  0  0  0  0  0  0  0  0  0  0
   13.7282  -10.8443   19.6548 H   0  0  0  0  0  0  0  0  0  0  0  0
   14.1864   -9.1265   19.5794 H   0  0  0  0  0  0  0  0  0  0  0  0
   13.6194   -8.7157   21.7923 H   0  0  0  0  0  0  0  0  0  0  0  0
   13.9510  -10.3836   22.3118 H   0  0  0  0  0  0  0  0  0  0  0  0
   11.7652  -10.4584   20.4230 H   0  0  0  0  0  0  0  0  0  0  0  0
   11.4219   -9.1831   21.5977 H   0  0  0  0  0  0  0  0  0  0  0  0
   11.7662  -12.0879   22.1414 H   0  0  0  0  0  0  0  0  0  0  0  0
   10.2619  -11.7873   25.3400 H   0  0  0  0  0  0  0  0  0  0  0  0
   10.8678  -12.8681   24.1371 H   0  0  0  0  0  0  0  0  0  0  0  0
   10.3359   -9.4813   24.9597 H   0  0  0  0  0  0  0  0  0  0  0  0
   18.0186  -11.1313   21.2290 H   0  0  0  0  0  0  0  0  0  0  0  0
   18.3781  -10.5465   18.9029 H   0  0  0  0  0  0  0  0  0  0  0  0
   17.9140  -12.1625   18.3473 H   0  0  0  0  0  0  0  0  0  0  0  0
   20.4094  -11.5222   19.9885 H   0  0  0  0  0  0  0  0  0  0  0  0
   20.3760  -11.8022   18.2427 H   0  0  0  0  0  0  0  0  0  0  0  0
   20.9645  -13.7847   19.8798 H   0  0  0  0  0  0  0  0  0  0  0  0
   19.9663  -14.0775   18.4607 H   0  0  0  0  0  0  0  0  0  0  0  0
   19.3828  -14.8107   21.0425 H   0  0  0  0  0  0  0  0  0  0  0  0
   18.2597  -14.8266   19.6954 H   0  0  0  0  0  0  0  0  0  0  0  0
   18.3220  -15.6388   22.3873 H   0  0  0  0  0  0  0  0  0  0  0  0
   17.6505  -15.9321   24.9231 H   0  0  0  0  0  0  0  0  0  0  0  0
   17.3379  -14.2000   24.9240 H   0  0  0  0  0  0  0  0  0  0  0  0
   20.2237  -14.0032   22.8803 H   0  0  0  0  0  0  0  0  0  0  0  0
   20.2964  -15.7702   23.0453 H   0  0  0  0  0  0  0  0  0  0  0  0
   19.7435  -15.5322   25.4943 H   0  0  0  0  0  0  0  0  0  0  0  0
   19.0696  -13.2934   26.3970 H   0  0  0  0  0  0  0  0  0  0  0  0
   19.4959  -12.5553   24.8418 H   0  0  0  0  0  0  0  0  0  0  0  0
   21.4329  -14.0682   26.6871 H   0  0  0  0  0  0  0  0  0  0  0  0
   21.3675  -12.3117   26.4841 H   0  0  0  0  0  0  0  0  0  0  0  0
   23.1931  -13.3143   25.0858 H   0  0  0  0  0  0  0  0  0  0  0  0
   21.9600  -12.5463   24.0732 H   0  0  0  0  0  0  0  0  0  0  0  0
   22.1575  -15.5480   24.6818 H   0  0  0  0  0  0  0  0  0  0  0  0
   22.5755  -14.7758   23.1453 H   0  0  0  0  0  0  0  0  0  0  0  0
   16.3745  -16.6859   23.3921 H   0  0  0  0  0  0  0  0  0  0  0  0
   16.2744  -17.0684   21.1213 H   0  0  0  0  0  0  0  0  0  0  0  0
   15.6321  -15.4176   20.8592 H   0  0  0  0  0  0  0  0  0  0  0  0
   10.9956   -8.8503   23.5000 H   0  0  0  0  0  0  0  0  0  0  0  0
   15.5636  -15.2734   23.2970 H   0  0  0  0  0  0  0  0  0  0  0  0
  1 12  1  0  0  0  0
  1  3  1  0  0  0  0
  1  2  2  0  0  0  0
  3  4  1  0  0  0  0
  3 32  1  0  0  0  0
  4  5  1  0  0  0  0
  4 33  1  0  0  0  0
  4 34  1  0  0  0  0
  5  6  1  0  0  0  0
  5 35  1  0  0  0  0
  5 36  1  0  0  0  0
  6  7  1  0  0  0  0
  6 37  1  0  0  0  0
  6 38  1  0  0  0  0
  7  8  1  0  0  0  0
  7 39  1  0  0  0  0
  8 10  2  0  0  0  0
  8  9  1  0  0  0  0
  9 40  1  0  0  0  0
  9 41  1  0  0  0  0
 10 42  1  0  0  0  0
 10 69  1  0  0  0  0
 11 12  1  0  0  0  0
 11 16  1  0  0  0  0
 11 18  1  0  0  0  0
 12 13  1  0  0  0  0
 12 43  1  1  0  0  0
 13 14  1  0  0  0  0
 13 44  1  0  0  0  0
 13 45  1  0  0  0  0
 14 15  1  0  0  0  0
 14 46  1  0  0  0  0
 14 47  1  0  0  0  0
 15 16  1  0  0  0  0
 15 48  1  0  0  0  0
 15 49  1  0  0  0  0
 16 50  1  0  0  0  0
 16 51  1  0  0  0  0
 17 18  2  0  0  0  0
 18 19  1  0  0  0  0
 19 27  1  0  0  0  0
 19 20  1  0  0  0  0
 19 52  1  6  0  0  0
 20 22  1  0  0  0  0
 20 53  1  0  0  0  0
 20 54  1  0  0  0  0
 21 22  1  0  0  0  0
 21 26  1  0  0  0  0
 21 55  1  0  0  0  0
 21 56  1  0  0  0  0
 22 23  1  0  0  0  0
 22 57  1  0  0  0  0
 23 24  1  0  0  0  0
 23 58  1  0  0  0  0
 23 59  1  0  0  0  0
 24 25  1  0  0  0  0
 24 60  1  0  0  0  0
 24 61  1  0  0  0  0
 25 26  1  0  0  0  0
 25 62  1  0  0  0  0
 25 63  1  0  0  0  0
 26 64  1  0  0  0  0
 26 65  1  0  0  0  0
 27 28  1  0  0  0  0
 27 66  1  0  0  0  0
 27 70  1  0  0  0  0
 28 29  1  0  0  0  0
 28 67  1  0  0  0  0
 28 68  1  0  0  0  0
 29 31  2  0  0  0  0
 29 30  1  0  0  0  0
M  CHG  1  27   1
M  END
$$$$
