IH1
 OpenBabel04041914083D

 66 69  0  0  1  0  0  0  0  0999 V2000
   21.9239  -15.1004   25.5614 C   0  0  0  0  0  0  0  0  0  0  0  0
   21.0288  -14.3159   26.2239 C   0  0  0  0  0  0  0  0  0  0  0  0
   19.8628  -14.9437   26.5288 C   0  0  0  0  0  0  0  0  0  0  0  0
   19.6261  -16.2682   26.1427 C   0  0  0  0  0  0  0  0  0  0  0  0
   20.5233  -16.9953   25.4317 C   0  0  0  0  0  0  0  0  0  0  0  0
   21.6930  -16.3918   25.1291 C   0  0  0  0  0  0  0  0  0  0  0  0
   18.1409  -17.0823   26.4849 S   0  0  0  0  0  0  0  0  0  0  0  0
   17.2046  -16.0200   26.7209 O   0  0  0  0  0  0  0  0  0  0  0  0
   18.4439  -17.9929   27.5623 O   0  0  0  0  0  0  0  0  0  0  0  0
   17.6423  -17.9820   24.9961 C   0  0  0  0  0  0  0  0  0  0  0  0
   17.0374  -17.1543   23.8553 C   0  0  0  0  0  0  0  0  0  0  0  0
   18.4341  -13.0132   21.7452 C   0  0  2  0  0  0  0  0  0  0  0  0
   19.7570  -12.8332   21.0824 C   0  0  0  0  0  0  0  0  0  0  0  0
   20.6865  -13.7617   20.8196 C   0  0  0  0  0  0  0  0  0  0  0  0
   20.5046  -15.1426   21.2707 C   0  0  0  0  0  0  0  0  0  0  0  0
   19.0475  -16.4344   22.6400 C   0  0  0  0  0  0  0  0  0  0  0  0
   17.5332  -14.8850   23.0810 C   0  0  0  0  0  0  0  0  0  0  0  0
   19.3089  -15.2999   21.9466 N   0  3  0  0  0  0  0  0  0  0  0  0
   18.5508  -14.2761   22.4074 N   0  3  0  0  0  0  0  0  0  0  0  0
   16.5433  -14.3689   23.3895 O   0  0  0  0  0  0  0  0  0  0  0  0
   19.7653  -17.4360   22.5962 O   0  0  0  0  0  0  0  0  0  0  0  0
   17.8849  -16.2072   23.2513 N   0  0  0  0  0  0  0  0  0  0  0  0
   17.2329  -12.6551   20.6669 C   0  0  0  0  0  0  0  0  0  0  0  0
   17.3956  -12.2167   19.5380 O   0  0  0  0  0  0  0  0  0  0  0  0
   14.8452  -12.1487   20.3340 C   0  0  0  0  0  0  0  0  0  0  0  0
   13.5696  -12.0421   21.1284 C   0  0  2  0  0  0  0  0  0  0  0  0
   13.1663  -10.6641   21.5692 C   0  0  0  0  0  0  0  0  0  0  0  0
   11.9306  -10.7777   22.4065 C   0  0  0  0  0  0  0  0  0  0  0  0
   12.2473  -11.6075   23.6531 C   0  0  2  0  0  0  0  0  0  0  0  0
   12.5737  -12.9810   23.1407 C   0  0  0  0  0  0  0  0  0  0  0  0
   15.9300  -12.5096   21.0707 N   0  0  0  0  0  0  0  0  0  0  0  0
   13.5837  -13.1624   22.1084 C   0  0  0  0  0  0  0  0  0  0  0  0
   10.9623  -11.8029   24.3143 C   0  0  0  0  0  0  0  0  0  0  0  0
   10.3425  -12.9445   24.2258 N   0  0  0  0  0  0  0  0  0  0  0  0
   10.4863  -10.8181   25.0006 N   0  0  0  0  0  0  0  0  0  0  0  0
   23.5028  -14.2967   25.1065 Br  0  0  0  0  0  0  0  0  0  0  0  0
   21.2406  -13.2818   26.4691 H   0  0  0  0  0  0  0  0  0  0  0  0
   19.1220  -14.4078   27.0711 H   0  0  0  0  0  0  0  0  0  0  0  0
   20.2918  -17.9943   25.1242 H   0  0  0  0  0  0  0  0  0  0  0  0
   22.4226  -16.9224   24.5482 H   0  0  0  0  0  0  0  0  0  0  0  0
   16.8719  -18.6931   25.3370 H   0  0  0  0  0  0  0  0  0  0  0  0
   18.5063  -18.5497   24.6452 H   0  0  0  0  0  0  0  0  0  0  0  0
   16.1790  -16.5848   24.1924 H   0  0  0  0  0  0  0  0  0  0  0  0
   16.7361  -17.8271   23.0335 H   0  0  0  0  0  0  0  0  0  0  0  0
   18.4059  -12.2448   22.5323 H   0  0  0  0  0  0  0  0  0  0  0  0
   19.9534  -11.8426   20.7962 H   0  0  0  0  0  0  0  0  0  0  0  0
   21.5802  -13.4625   20.2679 H   0  0  0  0  0  0  0  0  0  0  0  0
   21.2841  -15.4406   21.9661 H   0  0  0  0  0  0  0  0  0  0  0  0
   20.4515  -15.8306   20.4276 H   0  0  0  0  0  0  0  0  0  0  0  0
   14.7106  -12.9764   19.6691 H   0  0  0  0  0  0  0  0  0  0  0  0
   15.0837  -11.2135   19.9190 H   0  0  0  0  0  0  0  0  0  0  0  0
   12.8795  -12.2778   20.3433 H   0  0  0  0  0  0  0  0  0  0  0  0
   12.9153  -10.0452   20.7027 H   0  0  0  0  0  0  0  0  0  0  0  0
   13.9150  -10.1854   22.1832 H   0  0  0  0  0  0  0  0  0  0  0  0
   11.1642  -11.2942   21.7919 H   0  0  0  0  0  0  0  0  0  0  0  0
   11.5830   -9.7719   22.6323 H   0  0  0  0  0  0  0  0  0  0  0  0
   12.9867  -11.1736   24.3891 H   0  0  0  0  0  0  0  0  0  0  0  0
   11.6850  -13.3504   22.6079 H   0  0  0  0  0  0  0  0  0  0  0  0
   12.8644  -13.6383   23.9409 H   0  0  0  0  0  0  0  0  0  0  0  0
   15.6829  -12.6132   22.0267 H   0  0  0  0  0  0  0  0  0  0  0  0
   14.4980  -13.2788   22.6701 H   0  0  0  0  0  0  0  0  0  0  0  0
   13.3430  -14.1112   21.6093 H   0  0  0  0  0  0  0  0  0  0  0  0
    9.4414  -13.0507   24.6277 H   0  0  0  0  0  0  0  0  0  0  0  0
   10.7767  -13.7459   23.7751 H   0  0  0  0  0  0  0  0  0  0  0  0
    9.6432  -10.9452   25.5195 H   0  0  0  0  0  0  0  0  0  0  0  0
   10.9852   -9.9443   25.0389 H   0  0  0  0  0  0  0  0  0  0  0  0
  1 36  1  0  0  0  0
  1  6  2  0  0  0  0
  1  2  1  0  0  0  0
  2  3  2  0  0  0  0
  2 37  1  0  0  0  0
  3  4  1  0  0  0  0
  3 38  1  0  0  0  0
  4  7  1  0  0  0  0
  4  5  2  0  0  0  0
  5  6  1  0  0  0  0
  5 39  1  0  0  0  0
  6 40  1  0  0  0  0
  7 10  1  0  0  0  0
  7  9  2  0  0  0  0
  7  8  2  0  0  0  0
 10 11  1  0  0  0  0
 10 41  1  0  0  0  0
 10 42  1  0  0  0  0
 11 22  1  0  0  0  0
 11 43  1  0  0  0  0
 11 44  1  0  0  0  0
 12 19  1  0  0  0  0
 12 23  1  0  0  0  0
 12 13  1  0  0  0  0
 12 45  1  1  0  0  0
 13 14  2  0  0  0  0
 13 46  1  0  0  0  0
 14 15  1  0  0  0  0
 14 47  1  0  0  0  0
 15 18  1  0  0  0  0
 15 48  1  0  0  0  0
 15 49  1  0  0  0  0
 16 22  1  0  0  0  0
 16 18  1  0  0  0  0
 16 21  2  0  0  0  0
 17 22  1  0  0  0  0
 17 19  1  0  0  0  0
 17 20  2  0  0  0  0
 18 19  2  0  0  0  0
 23 31  1  0  0  0  0
 23 24  2  0  0  0  0
 25 31  1  0  0  0  0
 25 26  1  0  0  0  0
 25 50  1  0  0  0  0
 25 51  1  0  0  0  0
 26 32  1  0  0  0  0
 26 27  1  0  0  0  0
 26 52  1  6  0  0  0
 27 28  1  0  0  0  0
 27 53  1  0  0  0  0
 27 54  1  0  0  0  0
 28 29  1  0  0  0  0
 28 55  1  0  0  0  0
 28 56  1  0  0  0  0
 29 33  1  0  0  0  0
 29 30  1  0  0  0  0
 29 57  1  1  0  0  0
 30 32  1  0  0  0  0
 30 58  1  0  0  0  0
 30 59  1  0  0  0  0
 31 60  1  0  0  0  0
 32 61  1  0  0  0  0
 32 62  1  0  0  0  0
 33 35  2  0  0  0  0
 33 34  1  0  0  0  0
 34 63  1  0  0  0  0
 34 64  1  0  0  0  0
 35 65  1  0  0  0  0
 35 66  1  0  0  0  0
M  CHG  2  18   1  19   1
M  END
$$$$
