IK8
 OpenBabel04041917533D

 59 63  0  0  0  0  0  0  0  0999 V2000
    2.6277   27.9989   53.1803 F   0  0  0  0  0  0  0  0  0  0  0  0
    2.6642   26.4363   54.6918 F   0  0  0  0  0  0  0  0  0  0  0  0
    3.5092   26.0691   52.6996 F   0  0  0  0  0  0  0  0  0  0  0  0
   12.1858   27.6712   52.4687 O   0  0  0  0  0  0  0  0  0  0  0  0
    8.2041   29.3738   56.3616 O   0  0  0  0  0  0  0  0  0  0  0  0
   12.1255   28.5677   51.3773 N   0  0  0  0  0  0  0  0  0  0  0  0
   10.3274   29.9158   50.4947 N   0  0  0  0  0  0  0  0  0  0  0  0
    6.8729   27.7932   54.3544 N   0  3  0  0  0  0  0  0  0  0  0  0
    5.9049   27.1465   53.6345 N   0  0  0  0  0  0  0  0  0  0  0  0
    6.2364   30.3580   56.9433 N   0  0  0  0  0  0  0  0  0  0  0  0
   10.9427   27.5693   53.0734 C   0  0  0  0  0  0  0  0  0  0  0  0
   10.0541   28.3830   52.3693 C   0  0  0  0  0  0  0  0  0  0  0  0
   10.8527   28.9931   51.3384 C   0  0  0  0  0  0  0  0  0  0  0  0
   10.5534   26.8138   54.2196 C   0  0  0  0  0  0  0  0  0  0  0  0
    9.1862   26.9077   54.6585 C   0  0  0  0  0  0  0  0  0  0  0  0
    8.2554   27.7217   53.9424 C   0  0  0  0  0  0  0  0  0  0  0  0
    8.6893   28.4640   52.7919 C   0  0  0  0  0  0  0  0  0  0  0  0
    4.7255   27.4929   54.1878 C   0  0  0  0  0  0  0  0  0  0  0  0
    4.9193   28.3714   55.2686 C   0  0  0  0  0  0  0  0  0  0  0  0
    6.2786   28.5671   55.3574 C   0  0  0  0  0  0  0  0  0  0  0  0
    3.3924   26.9954   53.6832 C   0  0  0  0  0  0  0  0  0  0  0  0
    7.0206   29.4201   56.2541 C   0  0  0  0  0  0  0  0  0  0  0  0
    6.8288   31.3664   57.7396 C   0  0  0  0  0  0  0  0  0  0  0  0
    7.6029   31.0268   58.8744 C   0  0  0  0  0  0  0  0  0  0  0  0
    8.1774   31.9956   59.7178 C   0  0  0  0  0  0  0  0  0  0  0  0
    7.9888   33.3533   59.3941 C   0  0  0  0  0  0  0  0  0  0  0  0
    7.2382   33.7202   58.2297 C   0  0  0  0  0  0  0  0  0  0  0  0
    6.6297   32.7328   57.4012 C   0  0  0  0  0  0  0  0  0  0  0  0
    8.4614   34.3508   60.3187 N   0  3  0  0  0  0  0  0  0  0  0  0
    9.7249   34.9067   60.3631 C   0  0  0  0  0  0  0  0  0  0  0  0
    9.7463   35.8003   61.4125 C   0  0  0  0  0  0  0  0  0  0  0  0
    8.5279   35.7917   62.0407 N   0  0  0  0  0  0  0  0  0  0  0  0
    7.7683   34.9083   61.3992 C   0  0  0  0  0  0  0  0  0  0  0  0
    7.7690   29.7279   59.1799 F   0  0  0  0  0  0  0  0  0  0  0  0
    6.3544   34.5863   61.7623 C   0  0  0  0  0  0  0  0  0  0  0  0
    6.1014   34.1775   63.2211 N   0  3  0  0  0  0  0  0  0  0  0  0
    6.5491   35.1212   64.3027 C   0  0  0  0  0  0  0  0  0  0  0  0
    6.3498   32.7509   63.5705 C   0  0  0  0  0  0  0  0  0  0  0  0
    9.3485   30.1698   50.5335 H   0  0  0  0  0  0  0  0  0  0  0  0
   10.8912   30.4026   49.8032 H   0  0  0  0  0  0  0  0  0  0  0  0
    5.2338   30.3173   56.8624 H   0  0  0  0  0  0  0  0  0  0  0  0
   11.2704   26.1851   54.7601 H   0  0  0  0  0  0  0  0  0  0  0  0
    8.8595   26.3420   55.5516 H   0  0  0  0  0  0  0  0  0  0  0  0
    7.9986   29.1113   52.2351 H   0  0  0  0  0  0  0  0  0  0  0  0
    4.1536   28.8165   55.8961 H   0  0  0  0  0  0  0  0  0  0  0  0
    8.7622   31.6847   60.5920 H   0  0  0  0  0  0  0  0  0  0  0  0
    7.1202   34.7756   57.9572 H   0  0  0  0  0  0  0  0  0  0  0  0
    6.0566   33.0123   56.4996 H   0  0  0  0  0  0  0  0  0  0  0  0
   10.5119   34.6647   59.6647 H   0  0  0  0  0  0  0  0  0  0  0  0
   10.5870   36.4211   61.7125 H   0  0  0  0  0  0  0  0  0  0  0  0
    5.9402   33.7691   61.1531 H   0  0  0  0  0  0  0  0  0  0  0  0
    5.7078   35.4653   61.5979 H   0  0  0  0  0  0  0  0  0  0  0  0
    6.3338   34.6390   65.2634 H   0  0  0  0  0  0  0  0  0  0  0  0
    5.9551   36.0323   64.2158 H   0  0  0  0  0  0  0  0  0  0  0  0
    7.6124   35.3263   64.2213 H   0  0  0  0  0  0  0  0  0  0  0  0
    6.0258   32.1320   62.7334 H   0  0  0  0  0  0  0  0  0  0  0  0
    5.7302   32.5347   64.4478 H   0  0  0  0  0  0  0  0  0  0  0  0
    7.4034   32.6011   63.7973 H   0  0  0  0  0  0  0  0  0  0  0  0
    5.0941   34.2482   63.2860 H   0  0  0  0  0  0  0  0  0  0  0  0
  1 21  1  0  0  0  0
  2 21  1  0  0  0  0
  3 21  1  0  0  0  0
  4  6  1  0  0  0  0
  4 11  1  0  0  0  0
  5 22  2  0  0  0  0
  6 13  2  0  0  0  0
  7 13  1  0  0  0  0
  7 39  1  0  0  0  0
  7 40  1  0  0  0  0
  8  9  1  0  0  0  0
  8 16  1  0  0  0  0
  8 20  2  0  0  0  0
  9 18  1  0  0  0  0
 10 22  1  0  0  0  0
 10 23  1  0  0  0  0
 10 41  1  0  0  0  0
 11 12  2  0  0  0  0
 11 14  1  0  0  0  0
 12 13  1  0  0  0  0
 12 17  1  0  0  0  0
 14 15  2  0  0  0  0
 14 42  1  0  0  0  0
 15 16  1  0  0  0  0
 15 43  1  0  0  0  0
 16 17  2  0  0  0  0
 17 44  1  0  0  0  0
 18 19  2  0  0  0  0
 18 21  1  0  0  0  0
 19 20  1  0  0  0  0
 19 45  1  0  0  0  0
 20 22  1  0  0  0  0
 23 24  2  0  0  0  0
 23 28  1  0  0  0  0
 24 25  1  0  0  0  0
 24 34  1  0  0  0  0
 25 26  2  0  0  0  0
 25 46  1  0  0  0  0
 26 27  1  0  0  0  0
 26 29  1  0  0  0  0
 27 28  2  0  0  0  0
 27 47  1  0  0  0  0
 28 48  1  0  0  0  0
 29 30  1  0  0  0  0
 29 33  2  0  0  0  0
 30 31  2  0  0  0  0
 30 49  1  0  0  0  0
 31 32  1  0  0  0  0
 31 50  1  0  0  0  0
 32 33  1  0  0  0  0
 33 35  1  0  0  0  0
 35 36  1  0  0  0  0
 35 51  1  0  0  0  0
 35 52  1  0  0  0  0
 36 37  1  0  0  0  0
 36 38  1  0  0  0  0
 36 59  1  0  0  0  0
 37 53  1  0  0  0  0
 37 54  1  0  0  0  0
 37 55  1  0  0  0  0
 38 56  1  0  0  0  0
 38 57  1  0  0  0  0
 38 58  1  0  0  0  0
M  CHG  3   8   1  29   1  36   1
M  END
$$$$
