IM1
 OpenBabel04041914013D

 81 83  0  0  1  0  0  0  0  0999 V2000
  -10.6671   15.6076   33.1305 C   0  0  0  0  0  0  0  0  0  0  0  0
  -12.1472   15.2609   32.9482 C   0  0  0  0  0  0  0  0  0  0  0  0
   -9.8385   14.3461   33.4021 C   0  0  0  0  0  0  0  0  0  0  0  0
  -10.5206   16.5529   34.3298 C   0  0  0  0  0  0  0  0  0  0  0  0
  -10.0898   15.6876   30.8064 C   0  0  0  0  0  0  0  0  0  0  0  0
  -11.0722   15.6440   28.5281 C   0  0  1  0  0  0  0  0  0  0  0  0
  -12.5087   15.3081   28.0857 C   0  0  0  0  0  0  0  0  0  0  0  0
  -13.1156   14.1877   28.8995 C   0  0  0  0  0  0  0  0  0  0  0  0
  -14.1161   14.4617   29.8405 C   0  0  0  0  0  0  0  0  0  0  0  0
  -14.6365   13.4404   30.6359 C   0  0  0  0  0  0  0  0  0  0  0  0
  -14.1639   12.1373   30.4962 C   0  0  0  0  0  0  0  0  0  0  0  0
  -13.1733   11.8524   29.5586 C   0  0  0  0  0  0  0  0  0  0  0  0
  -12.6505   12.8720   28.7622 C   0  0  0  0  0  0  0  0  0  0  0  0
  -10.4219   16.6985   27.5917 C   0  0  2  0  0  0  0  0  0  0  0  0
   -8.9489   16.8838   27.9613 C   0  0  0  0  0  0  0  0  0  0  0  0
   -8.1117   17.6142   26.9005 C   0  0  1  0  0  0  0  0  0  0  0  0
   -6.7353   17.8983   27.5360 C   0  0  0  0  0  0  0  0  0  0  0  0
   -5.5899   18.0192   26.5739 C   0  0  0  0  0  0  0  0  0  0  0  0
   -5.4616   19.1373   25.7476 C   0  0  0  0  0  0  0  0  0  0  0  0
   -4.4359   19.1891   24.8061 C   0  0  0  0  0  0  0  0  0  0  0  0
   -3.5351   18.1297   24.6882 C   0  0  0  0  0  0  0  0  0  0  0  0
   -3.6451   17.0222   25.5228 C   0  0  0  0  0  0  0  0  0  0  0  0
   -4.6687   16.9666   26.4637 C   0  0  0  0  0  0  0  0  0  0  0  0
   -8.0228   16.7285   25.6555 C   0  0  0  0  0  0  0  0  0  0  0  0
   -8.0989   16.7222   23.1825 C   0  0  1  0  0  0  0  0  0  0  0  0
   -9.4408   16.6766   22.4091 C   0  0  0  0  0  0  0  0  0  0  0  0
  -10.5324   15.9676   23.2205 C   0  0  0  0  0  0  0  0  0  0  0  0
   -7.0540   17.4944   22.4262 C   0  0  0  0  0  0  0  0  0  0  0  0
   -5.2593   17.8259   21.1680 C   0  0  0  0  0  0  0  0  0  0  0  0
   -5.8494   19.0156   21.5145 C   0  0  0  0  0  0  0  0  0  0  0  0
  -11.0391   16.0947   29.9181 N   0  0  0  0  0  0  0  0  0  0  0  0
   -8.2436   17.3872   24.4690 N   0  0  0  0  0  0  0  0  0  0  0  0
   -6.0237   16.8615   21.7666 N   0  3  0  0  0  0  0  0  0  0  0  0
   -6.9671   18.8027   22.2779 N   0  0  0  0  0  0  0  0  0  0  0  0
   -9.2080   14.8749   30.5862 O   0  0  0  0  0  0  0  0  0  0  0  0
  -11.0638   17.9742   27.7048 O   0  0  0  0  0  0  0  0  0  0  0  0
   -7.8213   15.5200   25.7155 O   0  0  0  0  0  0  0  0  0  0  0  0
  -10.2351   16.3614   31.9729 O   0  0  0  0  0  0  0  0  0  0  0  0
   -9.2912   15.9576   21.0604 C   0  0  0  0  0  0  0  0  0  0  0  0
  -12.5620   14.7657   33.8305 H   0  0  0  0  0  0  0  0  0  0  0  0
  -12.2821   14.5970   32.0908 H   0  0  0  0  0  0  0  0  0  0  0  0
  -12.7353   16.1638   32.7433 H   0  0  0  0  0  0  0  0  0  0  0  0
  -10.1951   13.8276   34.2987 H   0  0  0  0  0  0  0  0  0  0  0  0
   -8.7818   14.5965   33.5459 H   0  0  0  0  0  0  0  0  0  0  0  0
   -9.8909   13.6315   32.5751 H   0  0  0  0  0  0  0  0  0  0  0  0
  -10.9044   16.0972   35.2488 H   0  0  0  0  0  0  0  0  0  0  0  0
  -11.0552   17.4942   34.1587 H   0  0  0  0  0  0  0  0  0  0  0  0
   -9.4689   16.8171   34.4905 H   0  0  0  0  0  0  0  0  0  0  0  0
  -10.4715   14.7272   28.4544 H   0  0  0  0  0  0  0  0  0  0  0  0
  -12.5161   15.0083   27.0296 H   0  0  0  0  0  0  0  0  0  0  0  0
  -13.1496   16.1956   28.1559 H   0  0  0  0  0  0  0  0  0  0  0  0
  -14.4777   15.4773   29.9806 H   0  0  0  0  0  0  0  0  0  0  0  0
  -15.3981   13.6660   31.3773 H   0  0  0  0  0  0  0  0  0  0  0  0
  -14.5621   11.3442   31.1231 H   0  0  0  0  0  0  0  0  0  0  0  0
  -12.7977   10.8377   29.4551 H   0  0  0  0  0  0  0  0  0  0  0  0
  -11.8644   12.6341   28.0490 H   0  0  0  0  0  0  0  0  0  0  0  0
  -10.5207   16.3668   26.5534 H   0  0  0  0  0  0  0  0  0  0  0  0
   -8.4987   15.8986   28.1409 H   0  0  0  0  0  0  0  0  0  0  0  0
   -8.8826   17.4531   28.8959 H   0  0  0  0  0  0  0  0  0  0  0  0
   -8.5887   18.5659   26.6348 H   0  0  0  0  0  0  0  0  0  0  0  0
   -6.4897   17.1161   28.2684 H   0  0  0  0  0  0  0  0  0  0  0  0
   -6.8007   18.8190   28.1330 H   0  0  0  0  0  0  0  0  0  0  0  0
   -6.1708   19.9588   25.8122 H   0  0  0  0  0  0  0  0  0  0  0  0
   -4.3588   20.0458   24.1434 H   0  0  0  0  0  0  0  0  0  0  0  0
   -2.7544   18.1666   23.9344 H   0  0  0  0  0  0  0  0  0  0  0  0
   -2.9466   16.1933   25.4346 H   0  0  0  0  0  0  0  0  0  0  0  0
   -4.7638   16.0871   27.0986 H   0  0  0  0  0  0  0  0  0  0  0  0
   -7.7440   15.6967   23.3418 H   0  0  0  0  0  0  0  0  0  0  0  0
   -9.7828   17.7016   22.2114 H   0  0  0  0  0  0  0  0  0  0  0  0
  -11.4737   15.9372   22.6610 H   0  0  0  0  0  0  0  0  0  0  0  0
  -10.7337   16.4886   24.1608 H   0  0  0  0  0  0  0  0  0  0  0  0
  -10.2452   14.9370   23.4547 H   0  0  0  0  0  0  0  0  0  0  0  0
   -4.3835   17.5833   20.5848 H   0  0  0  0  0  0  0  0  0  0  0  0
   -5.5251   20.0146   21.2550 H   0  0  0  0  0  0  0  0  0  0  0  0
  -11.6033   16.8829   30.2034 H   0  0  0  0  0  0  0  0  0  0  0  0
   -8.2255   18.4005   24.4433 H   0  0  0  0  0  0  0  0  0  0  0  0
   -5.8769   15.8653   21.7287 H   0  0  0  0  0  0  0  0  0  0  0  0
  -11.9794   17.8866   27.3929 H   0  0  0  0  0  0  0  0  0  0  0  0
   -8.5733   16.4641   20.4083 H   0  0  0  0  0  0  0  0  0  0  0  0
  -10.2468   15.9314   20.5262 H   0  0  0  0  0  0  0  0  0  0  0  0
   -8.9538   14.9246   21.2002 H   0  0  0  0  0  0  0  0  0  0  0  0
  1 38  1  0  0  0  0
  1  4  1  0  0  0  0
  1  3  1  0  0  0  0
  1  2  1  0  0  0  0
  2 40  1  0  0  0  0
  2 41  1  0  0  0  0
  2 42  1  0  0  0  0
  3 43  1  0  0  0  0
  3 44  1  0  0  0  0
  3 45  1  0  0  0  0
  4 46  1  0  0  0  0
  4 47  1  0  0  0  0
  4 48  1  0  0  0  0
  5 38  1  0  0  0  0
  5 35  2  0  0  0  0
  5 31  1  0  0  0  0
  6 31  1  0  0  0  0
  6 14  1  0  0  0  0
  6  7  1  0  0  0  0
  6 49  1  6  0  0  0
  7  8  1  0  0  0  0
  7 50  1  0  0  0  0
  7 51  1  0  0  0  0
  8 13  2  0  0  0  0
  8  9  1  0  0  0  0
  9 10  2  0  0  0  0
  9 52  1  0  0  0  0
 10 11  1  0  0  0  0
 10 53  1  0  0  0  0
 11 12  2  0  0  0  0
 11 54  1  0  0  0  0
 12 13  1  0  0  0  0
 12 55  1  0  0  0  0
 13 56  1  0  0  0  0
 14 36  1  0  0  0  0
 14 15  1  0  0  0  0
 14 57  1  6  0  0  0
 15 16  1  0  0  0  0
 15 58  1  0  0  0  0
 15 59  1  0  0  0  0
 16 24  1  0  0  0  0
 16 17  1  0  0  0  0
 16 60  1  6  0  0  0
 17 18  1  0  0  0  0
 17 61  1  0  0  0  0
 17 62  1  0  0  0  0
 18 23  2  0  0  0  0
 18 19  1  0  0  0  0
 19 20  2  0  0  0  0
 19 63  1  0  0  0  0
 20 21  1  0  0  0  0
 20 64  1  0  0  0  0
 21 22  2  0  0  0  0
 21 65  1  0  0  0  0
 22 23  1  0  0  0  0
 22 66  1  0  0  0  0
 23 67  1  0  0  0  0
 24 37  2  0  0  0  0
 24 32  1  0  0  0  0
 25 32  1  0  0  0  0
 25 28  1  0  0  0  0
 25 26  1  0  0  0  0
 25 68  1  1  0  0  0
 26 27  1  0  0  0  0
 26 39  1  0  0  0  0
 26 69  1  0  0  0  0
 27 70  1  0  0  0  0
 27 71  1  0  0  0  0
 27 72  1  0  0  0  0
 28 34  1  0  0  0  0
 28 33  2  0  0  0  0
 29 33  1  0  0  0  0
 29 30  2  0  0  0  0
 29 73  1  0  0  0  0
 30 34  1  0  0  0  0
 30 74  1  0  0  0  0
 31 75  1  0  0  0  0
 32 76  1  0  0  0  0
 33 77  1  0  0  0  0
 36 78  1  0  0  0  0
 39 79  1  0  0  0  0
 39 80  1  0  0  0  0
 39 81  1  0  0  0  0
M  CHG  1  33   1
M  END
$$$$
