IM1
 OpenBabel04041916493D

 81 83  0  0  1  0  0  0  0  0999 V2000
   -9.3635   16.1651   32.9029 C   0  0  0  0  0  0  0  0  0  0  0  0
   -8.2347   15.1520   33.1442 C   0  0  0  0  0  0  0  0  0  0  0  0
   -8.7846   17.4581   32.3193 C   0  0  0  0  0  0  0  0  0  0  0  0
   -9.9921   16.4570   34.2762 C   0  0  0  0  0  0  0  0  0  0  0  0
  -10.4646   15.7479   32.0484 O   0  0  0  0  0  0  0  0  0  0  0  0
  -10.2437   15.5797   30.7176 C   0  0  0  0  0  0  0  0  0  0  0  0
   -9.2711   15.0058   30.2480 O   0  0  0  0  0  0  0  0  0  0  0  0
  -11.2122   16.2165   29.9845 N   0  0  0  0  0  0  0  0  0  0  0  0
  -11.2969   16.1582   28.5112 C   0  0  1  0  0  0  0  0  0  0  0  0
  -12.7080   15.8079   28.0136 C   0  0  0  0  0  0  0  0  0  0  0  0
  -13.2399   14.6124   28.7689 C   0  0  0  0  0  0  0  0  0  0  0  0
  -12.6114   13.3640   28.6758 C   0  0  0  0  0  0  0  0  0  0  0  0
  -13.0043   12.3158   29.5040 C   0  0  0  0  0  0  0  0  0  0  0  0
  -14.0366   12.5051   30.4209 C   0  0  0  0  0  0  0  0  0  0  0  0
  -14.6806   13.7390   30.5010 C   0  0  0  0  0  0  0  0  0  0  0  0
  -14.2882   14.7901   29.6809 C   0  0  0  0  0  0  0  0  0  0  0  0
  -10.7279   17.4124   27.7865 C   0  0  1  0  0  0  0  0  0  0  0  0
  -11.2884   18.6339   28.2826 O   0  0  0  0  0  0  0  0  0  0  0  0
   -9.2249   17.4115   28.0207 C   0  0  0  0  0  0  0  0  0  0  0  0
   -8.3744   18.0193   26.9074 C   0  0  1  0  0  0  0  0  0  0  0  0
   -7.0311   18.3274   27.5825 C   0  0  0  0  0  0  0  0  0  0  0  0
   -5.8405   18.5426   26.7016 C   0  0  0  0  0  0  0  0  0  0  0  0
   -5.6518   19.7340   26.0080 C   0  0  0  0  0  0  0  0  0  0  0  0
   -4.5233   19.9089   25.2284 C   0  0  0  0  0  0  0  0  0  0  0  0
   -3.5736   18.8935   25.1317 C   0  0  0  0  0  0  0  0  0  0  0  0
   -3.7555   17.6890   25.8120 C   0  0  0  0  0  0  0  0  0  0  0  0
   -4.8900   17.5171   26.5962 C   0  0  0  0  0  0  0  0  0  0  0  0
   -8.2320   17.0136   25.7621 C   0  0  0  0  0  0  0  0  0  0  0  0
   -8.1702   15.8034   25.9219 O   0  0  0  0  0  0  0  0  0  0  0  0
   -8.1860   17.6055   24.5329 N   0  0  0  0  0  0  0  0  0  0  0  0
   -7.9248   16.8791   23.3032 C   0  0  1  0  0  0  0  0  0  0  0  0
   -9.2432   16.6678   22.5219 C   0  0  0  0  0  0  0  0  0  0  0  0
   -9.0561   16.6125   21.0022 C   0  0  0  0  0  0  0  0  0  0  0  0
   -9.9150   15.3724   22.9952 C   0  0  0  0  0  0  0  0  0  0  0  0
   -6.9315   17.7372   22.5843 C   0  0  0  0  0  0  0  0  0  0  0  0
   -7.0107   19.0420   22.4033 N   0  0  0  0  0  0  0  0  0  0  0  0
   -5.8473   19.3873   21.7711 C   0  0  0  0  0  0  0  0  0  0  0  0
   -5.0603   18.2822   21.5572 C   0  0  0  0  0  0  0  0  0  0  0  0
   -5.7597   17.2351   22.0830 N   0  3  0  0  0  0  0  0  0  0  0  0
   -7.4726   15.6000   33.7996 H   0  0  0  0  0  0  0  0  0  0  0  0
   -7.7291   14.8486   32.2252 H   0  0  0  0  0  0  0  0  0  0  0  0
   -8.5938   14.2460   33.6432 H   0  0  0  0  0  0  0  0  0  0  0  0
   -8.0299   17.8976   32.9758 H   0  0  0  0  0  0  0  0  0  0  0  0
   -9.5808   18.1900   32.1451 H   0  0  0  0  0  0  0  0  0  0  0  0
   -8.3130   17.2678   31.3485 H   0  0  0  0  0  0  0  0  0  0  0  0
   -9.2606   16.8922   34.9659 H   0  0  0  0  0  0  0  0  0  0  0  0
  -10.3755   15.5350   34.7322 H   0  0  0  0  0  0  0  0  0  0  0  0
  -10.8432   17.1399   34.1902 H   0  0  0  0  0  0  0  0  0  0  0  0
  -11.9362   16.6963   30.5012 H   0  0  0  0  0  0  0  0  0  0  0  0
  -10.6656   15.3136   28.2037 H   0  0  0  0  0  0  0  0  0  0  0  0
  -12.6694   15.5605   26.9448 H   0  0  0  0  0  0  0  0  0  0  0  0
  -13.3835   16.6660   28.1109 H   0  0  0  0  0  0  0  0  0  0  0  0
  -11.7743   13.2135   27.9976 H   0  0  0  0  0  0  0  0  0  0  0  0
  -12.4856   11.3622   29.4555 H   0  0  0  0  0  0  0  0  0  0  0  0
  -14.3321   11.6928   31.0793 H   0  0  0  0  0  0  0  0  0  0  0  0
  -15.4773   13.8894   31.2281 H   0  0  0  0  0  0  0  0  0  0  0  0
  -14.7710   15.7589   29.7831 H   0  0  0  0  0  0  0  0  0  0  0  0
  -10.9698   17.3644   26.7182 H   0  0  0  0  0  0  0  0  0  0  0  0
  -10.7835   19.3708   27.8879 H   0  0  0  0  0  0  0  0  0  0  0  0
   -8.8756   16.3804   28.1440 H   0  0  0  0  0  0  0  0  0  0  0  0
   -9.0275   17.9295   28.9660 H   0  0  0  0  0  0  0  0  0  0  0  0
   -8.8259   18.9436   26.5236 H   0  0  0  0  0  0  0  0  0  0  0  0
   -6.7855   17.5173   28.2846 H   0  0  0  0  0  0  0  0  0  0  0  0
   -7.1575   19.2145   28.2189 H   0  0  0  0  0  0  0  0  0  0  0  0
   -6.3855   20.5483   26.0921 H   0  0  0  0  0  0  0  0  0  0  0  0
   -4.3647   20.8454   24.6858 H   0  0  0  0  0  0  0  0  0  0  0  0
   -2.6906   19.0329   24.5142 H   0  0  0  0  0  0  0  0  0  0  0  0
   -3.0143   16.8996   25.7446 H   0  0  0  0  0  0  0  0  0  0  0  0
   -5.0262   16.5789   27.1343 H   0  0  0  0  0  0  0  0  0  0  0  0
   -8.0916   18.6123   24.4558 H   0  0  0  0  0  0  0  0  0  0  0  0
   -7.4648   15.9117   23.5390 H   0  0  0  0  0  0  0  0  0  0  0  0
   -9.9292   17.4992   22.7361 H   0  0  0  0  0  0  0  0  0  0  0  0
  -10.0171   16.4696   20.4983 H   0  0  0  0  0  0  0  0  0  0  0  0
   -8.3901   15.7927   20.7147 H   0  0  0  0  0  0  0  0  0  0  0  0
   -8.6376   17.5481   20.6166 H   0  0  0  0  0  0  0  0  0  0  0  0
  -10.0960   15.3886   24.0742 H   0  0  0  0  0  0  0  0  0  0  0  0
   -9.2844   14.5038   22.7725 H   0  0  0  0  0  0  0  0  0  0  0  0
  -10.8795   15.2252   22.4994 H   0  0  0  0  0  0  0  0  0  0  0  0
   -5.6323   20.4165   21.5169 H   0  0  0  0  0  0  0  0  0  0  0  0
   -4.0846   18.1546   21.1126 H   0  0  0  0  0  0  0  0  0  0  0  0
   -5.4625   16.2696   22.1338 H   0  0  0  0  0  0  0  0  0  0  0  0
  1  5  1  0  0  0  0
  1  4  1  0  0  0  0
  1  3  1  0  0  0  0
  1  2  1  0  0  0  0
  2 40  1  0  0  0  0
  2 41  1  0  0  0  0
  2 42  1  0  0  0  0
  3 43  1  0  0  0  0
  3 44  1  0  0  0  0
  3 45  1  0  0  0  0
  4 46  1  0  0  0  0
  4 47  1  0  0  0  0
  4 48  1  0  0  0  0
  5  6  1  0  0  0  0
  6  8  1  0  0  0  0
  6  7  2  0  0  0  0
  8  9  1  0  0  0  0
  8 49  1  0  0  0  0
  9 17  1  0  0  0  0
  9 10  1  0  0  0  0
  9 50  1  6  0  0  0
 10 11  1  0  0  0  0
 10 51  1  0  0  0  0
 10 52  1  0  0  0  0
 11 16  2  0  0  0  0
 11 12  1  0  0  0  0
 12 13  2  0  0  0  0
 12 53  1  0  0  0  0
 13 14  1  0  0  0  0
 13 54  1  0  0  0  0
 14 15  2  0  0  0  0
 14 55  1  0  0  0  0
 15 16  1  0  0  0  0
 15 56  1  0  0  0  0
 16 57  1  0  0  0  0
 17 19  1  0  0  0  0
 17 18  1  0  0  0  0
 17 58  1  6  0  0  0
 18 59  1  0  0  0  0
 19 20  1  0  0  0  0
 19 60  1  0  0  0  0
 19 61  1  0  0  0  0
 20 28  1  0  0  0  0
 20 21  1  0  0  0  0
 20 62  1  6  0  0  0
 21 22  1  0  0  0  0
 21 63  1  0  0  0  0
 21 64  1  0  0  0  0
 22 27  2  0  0  0  0
 22 23  1  0  0  0  0
 23 24  2  0  0  0  0
 23 65  1  0  0  0  0
 24 25  1  0  0  0  0
 24 66  1  0  0  0  0
 25 26  2  0  0  0  0
 25 67  1  0  0  0  0
 26 27  1  0  0  0  0
 26 68  1  0  0  0  0
 27 69  1  0  0  0  0
 28 30  1  0  0  0  0
 28 29  2  0  0  0  0
 30 31  1  0  0  0  0
 30 70  1  0  0  0  0
 31 35  1  0  0  0  0
 31 32  1  0  0  0  0
 31 71  1  1  0  0  0
 32 34  1  0  0  0  0
 32 33  1  0  0  0  0
 32 72  1  0  0  0  0
 33 73  1  0  0  0  0
 33 74  1  0  0  0  0
 33 75  1  0  0  0  0
 34 76  1  0  0  0  0
 34 77  1  0  0  0  0
 34 78  1  0  0  0  0
 35 39  2  0  0  0  0
 35 36  1  0  0  0  0
 36 37  1  0  0  0  0
 37 38  2  0  0  0  0
 37 79  1  0  0  0  0
 38 39  1  0  0  0  0
 38 80  1  0  0  0  0
 39 81  1  0  0  0  0
M  CHG  1  39   1
M  END
$$$$
