IM1
 OpenBabel04041916573D

 81 83  0  0  1  0  0  0  0  0999 V2000
   16.0268   19.1571    3.6821 C   0  0  0  0  0  0  0  0  0  0  0  0
   17.2744   18.6008    3.0015 C   0  0  0  0  0  0  0  0  0  0  0  0
   15.4150   17.9715    4.3982 C   0  0  0  0  0  0  0  0  0  0  0  0
   15.0971   19.6694    2.5852 C   0  0  0  0  0  0  0  0  0  0  0  0
   15.4989   20.9355    5.2648 C   0  0  0  0  0  0  0  0  0  0  0  0
   14.9661   23.0602    6.2484 C   0  0  1  0  0  0  0  0  0  0  0  0
   15.7402   23.6095    7.4455 C   0  0  0  0  0  0  0  0  0  0  0  0
   16.2450   22.5029    8.3504 C   0  0  0  0  0  0  0  0  0  0  0  0
   17.6035   22.1558    8.3655 C   0  0  0  0  0  0  0  0  0  0  0  0
   18.0530   21.1172    9.1838 C   0  0  0  0  0  0  0  0  0  0  0  0
   17.1521   20.4159    9.9885 C   0  0  0  0  0  0  0  0  0  0  0  0
   15.7985   20.7495    9.9752 C   0  0  0  0  0  0  0  0  0  0  0  0
   15.3475   21.7867    9.1559 C   0  0  0  0  0  0  0  0  0  0  0  0
   14.2505   24.1674    5.4220 C   0  0  2  0  0  0  0  0  0  0  0  0
   13.3305   23.6251    4.3398 C   0  0  0  0  0  0  0  0  0  0  0  0
   12.1385   24.5493    4.0381 C   0  0  1  0  0  0  0  0  0  0  0  0
   11.3709   23.9237    2.8656 C   0  0  0  0  0  0  0  0  0  0  0  0
    9.9900   24.4602    2.6139 C   0  0  0  0  0  0  0  0  0  0  0  0
    9.7938   25.7460    2.1006 C   0  0  0  0  0  0  0  0  0  0  0  0
    8.5060   26.2393    1.8785 C   0  0  0  0  0  0  0  0  0  0  0  0
    7.3990   25.4463    2.1706 C   0  0  0  0  0  0  0  0  0  0  0  0
    7.5856   24.1642    2.6847 C   0  0  0  0  0  0  0  0  0  0  0  0
    8.8727   23.6709    2.9067 C   0  0  0  0  0  0  0  0  0  0  0  0
   11.2669   24.6496    5.2918 C   0  0  0  0  0  0  0  0  0  0  0  0
    9.7520   26.0864    6.5332 C   0  0  1  0  0  0  0  0  0  0  0  0
   10.3937   26.7688    7.7367 C   0  0  0  0  0  0  0  0  0  0  0  0
    9.4243   26.6389    8.8970 C   0  0  0  0  0  0  0  0  0  0  0  0
   11.6605   26.1160    8.2493 C   0  0  0  0  0  0  0  0  0  0  0  0
    8.6990   26.9611    5.9439 C   0  0  0  0  0  0  0  0  0  0  0  0
    7.4957   28.2474    4.7397 C   0  0  0  0  0  0  0  0  0  0  0  0
    6.6477   27.3359    5.3111 C   0  0  0  0  0  0  0  0  0  0  0  0
   15.8937   22.2277    5.4792 N   0  0  0  0  0  0  0  0  0  0  0  0
   10.6353   25.8333    5.4365 N   0  0  0  0  0  0  0  0  0  0  0  0
    8.7852   28.0082    5.1580 N   0  0  0  0  0  0  0  0  0  0  0  0
    7.4126   26.5393    6.0948 N   0  3  0  0  0  0  0  0  0  0  0  0
   16.4489   20.2433    4.5545 O   0  0  0  0  0  0  0  0  0  0  0  0
   14.4217   20.5434    5.5798 O   0  0  0  0  0  0  0  0  0  0  0  0
   15.1494   24.9955    4.6826 O   0  0  0  0  0  0  0  0  0  0  0  0
   11.1618   23.7677    6.1232 O   0  0  0  0  0  0  0  0  0  0  0  0
   16.9910   17.8079    2.2995 H   0  0  0  0  0  0  0  0  0  0  0  0
   17.9432   18.1806    3.7583 H   0  0  0  0  0  0  0  0  0  0  0  0
   17.8041   19.3889    2.4643 H   0  0  0  0  0  0  0  0  0  0  0  0
   15.1201   17.2115    3.6663 H   0  0  0  0  0  0  0  0  0  0  0  0
   14.5449   18.2773    4.9668 H   0  0  0  0  0  0  0  0  0  0  0  0
   16.1527   17.5391    5.0777 H   0  0  0  0  0  0  0  0  0  0  0  0
   14.8153   18.8483    1.9180 H   0  0  0  0  0  0  0  0  0  0  0  0
   15.5941   20.4480    1.9955 H   0  0  0  0  0  0  0  0  0  0  0  0
   14.1920   20.0929    3.0244 H   0  0  0  0  0  0  0  0  0  0  0  0
   14.1550   22.4369    6.6394 H   0  0  0  0  0  0  0  0  0  0  0  0
   15.0943   24.2710    8.0274 H   0  0  0  0  0  0  0  0  0  0  0  0
   16.5949   24.1880    7.0799 H   0  0  0  0  0  0  0  0  0  0  0  0
   18.3140   22.6939    7.7401 H   0  0  0  0  0  0  0  0  0  0  0  0
   19.1075   20.8552    9.1949 H   0  0  0  0  0  0  0  0  0  0  0  0
   17.5033   19.6092   10.6264 H   0  0  0  0  0  0  0  0  0  0  0  0
   15.0960   20.2034   10.6006 H   0  0  0  0  0  0  0  0  0  0  0  0
   14.2901   22.0415    9.1407 H   0  0  0  0  0  0  0  0  0  0  0  0
   13.6822   24.8004    6.1175 H   0  0  0  0  0  0  0  0  0  0  0  0
   12.9418   22.6547    4.6453 H   0  0  0  0  0  0  0  0  0  0  0  0
   13.9065   23.5145    3.4113 H   0  0  0  0  0  0  0  0  0  0  0  0
   12.5050   25.5459    3.7506 H   0  0  0  0  0  0  0  0  0  0  0  0
   11.3008   22.8382    3.0360 H   0  0  0  0  0  0  0  0  0  0  0  0
   11.9666   24.0601    1.9491 H   0  0  0  0  0  0  0  0  0  0  0  0
   10.6497   26.3735    1.8698 H   0  0  0  0  0  0  0  0  0  0  0  0
    8.3659   27.2442    1.4841 H   0  0  0  0  0  0  0  0  0  0  0  0
    6.3953   25.8271    2.0005 H   0  0  0  0  0  0  0  0  0  0  0  0
    6.7247   23.5425    2.9119 H   0  0  0  0  0  0  0  0  0  0  0  0
    9.0031   22.6665    3.3100 H   0  0  0  0  0  0  0  0  0  0  0  0
    9.2967   25.1348    6.8783 H   0  0  0  0  0  0  0  0  0  0  0  0
   10.5878   27.8234    7.5075 H   0  0  0  0  0  0  0  0  0  0  0  0
    9.8438   27.1200    9.7817 H   0  0  0  0  0  0  0  0  0  0  0  0
    9.2688   25.5725    9.1083 H   0  0  0  0  0  0  0  0  0  0  0  0
    8.4745   27.0985    8.6389 H   0  0  0  0  0  0  0  0  0  0  0  0
   12.4405   26.1699    7.4984 H   0  0  0  0  0  0  0  0  0  0  0  0
   11.4600   25.0710    8.5087 H   0  0  0  0  0  0  0  0  0  0  0  0
   11.9984   26.6352    9.1557 H   0  0  0  0  0  0  0  0  0  0  0  0
    7.2040   29.0307    4.0531 H   0  0  0  0  0  0  0  0  0  0  0  0
    5.5924   27.2051    5.2144 H   0  0  0  0  0  0  0  0  0  0  0  0
   16.8006   22.5498    5.2164 H   0  0  0  0  0  0  0  0  0  0  0  0
   10.7214   26.5524    4.7359 H   0  0  0  0  0  0  0  0  0  0  0  0
    7.1595   25.7419    6.6611 H   0  0  0  0  0  0  0  0  0  0  0  0
   15.7538   25.4172    5.3092 H   0  0  0  0  0  0  0  0  0  0  0  0
  1 36  1  0  0  0  0
  1  4  1  0  0  0  0
  1  3  1  0  0  0  0
  1  2  1  0  0  0  0
  2 40  1  0  0  0  0
  2 41  1  0  0  0  0
  2 42  1  0  0  0  0
  3 43  1  0  0  0  0
  3 44  1  0  0  0  0
  3 45  1  0  0  0  0
  4 46  1  0  0  0  0
  4 47  1  0  0  0  0
  4 48  1  0  0  0  0
  5 36  1  0  0  0  0
  5 37  2  0  0  0  0
  5 32  1  0  0  0  0
  6 32  1  0  0  0  0
  6 14  1  0  0  0  0
  6  7  1  0  0  0  0
  6 49  1  1  0  0  0
  7  8  1  0  0  0  0
  7 50  1  0  0  0  0
  7 51  1  0  0  0  0
  8 13  2  0  0  0  0
  8  9  1  0  0  0  0
  9 10  2  0  0  0  0
  9 52  1  0  0  0  0
 10 11  1  0  0  0  0
 10 53  1  0  0  0  0
 11 12  2  0  0  0  0
 11 54  1  0  0  0  0
 12 13  1  0  0  0  0
 12 55  1  0  0  0  0
 13 56  1  0  0  0  0
 14 38  1  0  0  0  0
 14 15  1  0  0  0  0
 14 57  1  1  0  0  0
 15 16  1  0  0  0  0
 15 58  1  0  0  0  0
 15 59  1  0  0  0  0
 16 24  1  0  0  0  0
 16 17  1  0  0  0  0
 16 60  1  6  0  0  0
 17 18  1  0  0  0  0
 17 61  1  0  0  0  0
 17 62  1  0  0  0  0
 18 23  2  0  0  0  0
 18 19  1  0  0  0  0
 19 20  2  0  0  0  0
 19 63  1  0  0  0  0
 20 21  1  0  0  0  0
 20 64  1  0  0  0  0
 21 22  2  0  0  0  0
 21 65  1  0  0  0  0
 22 23  1  0  0  0  0
 22 66  1  0  0  0  0
 23 67  1  0  0  0  0
 24 39  2  0  0  0  0
 24 33  1  0  0  0  0
 25 33  1  0  0  0  0
 25 29  1  0  0  0  0
 25 26  1  0  0  0  0
 25 68  1  1  0  0  0
 26 28  1  0  0  0  0
 26 27  1  0  0  0  0
 26 69  1  0  0  0  0
 27 70  1  0  0  0  0
 27 71  1  0  0  0  0
 27 72  1  0  0  0  0
 28 73  1  0  0  0  0
 28 74  1  0  0  0  0
 28 75  1  0  0  0  0
 29 35  2  0  0  0  0
 29 34  1  0  0  0  0
 30 34  1  0  0  0  0
 30 31  2  0  0  0  0
 30 76  1  0  0  0  0
 31 35  1  0  0  0  0
 31 77  1  0  0  0  0
 32 78  1  0  0  0  0
 33 79  1  0  0  0  0
 35 80  1  0  0  0  0
 38 81  1  0  0  0  0
M  CHG  1  35   1
M  END
$$$$
