IMA
 OpenBabel04041915343D

 78 82  0  0  1  0  0  0  0  0999 V2000
    2.8545   10.4104   24.2659 C   0  0  1  0  0  0  0  0  0  0  0  0
    3.6464    9.8212   25.2530 C   0  0  0  0  0  0  0  0  0  0  0  0
    4.7540    9.0414   24.9030 C   0  0  0  0  0  0  0  0  0  0  0  0
    5.0459    8.9083   23.5322 C   0  0  2  0  0  0  0  0  0  0  0  0
    4.2715    9.5274   22.5471 C   0  0  2  0  0  0  0  0  0  0  0  0
    3.1560   10.2767   22.9170 C   0  0  0  0  0  0  0  0  0  0  0  0
    4.8339    9.2313   21.2880 C   0  0  0  0  0  0  0  0  0  0  0  0
    6.0493    8.2149   22.8863 N   0  3  2  0  0  0  0  0  0  0  0  0
    5.9105    8.4243   21.5249 C   0  0  2  0  0  0  0  0  0  0  0  0
    6.9817    7.2992   23.5090 C   0  0  0  0  0  0  0  0  0  0  0  0
    6.8257    7.8996   20.5444 C   0  0  0  0  0  0  0  0  0  0  0  0
    6.2871    7.6550   19.3235 N   0  0  0  0  0  0  0  0  0  0  0  0
    7.2533    7.2875   18.3398 C   0  0  0  0  0  0  0  0  0  0  0  0
    7.4852    5.8008   18.2182 C   0  0  1  0  0  0  0  0  0  0  0  0
    7.9702    7.6765   20.8130 O   0  0  0  0  0  0  0  0  0  0  0  0
    8.1800    7.9441   24.1642 C   0  0  1  0  0  0  0  0  0  0  0  0
    9.8189    7.7777   25.9602 C   0  0  1  0  0  0  0  0  0  0  0  0
    8.6544    7.3353   25.3216 C   0  0  0  0  0  0  0  0  0  0  0  0
    8.8738    9.0396   23.6341 C   0  0  0  0  0  0  0  0  0  0  0  0
   10.0291    9.5183   24.2623 C   0  0  0  0  0  0  0  0  0  0  0  0
   10.5051    8.8753   25.4120 C   0  0  0  0  0  0  0  0  0  0  0  0
   10.2371    7.0620   27.1772 C   0  0  0  0  0  0  0  0  0  0  0  0
    9.2990    6.4159   27.8523 N   0  0  0  0  0  0  0  0  0  0  0  0
   11.5069    7.0457   27.5558 N   0  0  0  0  0  0  0  0  0  0  0  0
    8.6693    3.7609   18.8362 C   0  0  0  0  0  0  0  0  0  0  0  0
    8.0921    3.0941   17.7563 C   0  0  1  0  0  0  0  0  0  0  0  0
    7.1963    3.7910   16.9238 C   0  0  0  0  0  0  0  0  0  0  0  0
    6.8821    5.1191   17.1636 C   0  0  0  0  0  0  0  0  0  0  0  0
    8.3603    5.1073   19.0768 C   0  0  0  0  0  0  0  0  0  0  0  0
    8.4378    1.6813   17.3810 N   0  0  0  0  0  0  0  0  0  0  0  0
    9.3094    1.7427   16.1621 C   0  0  0  0  0  0  0  0  0  0  0  0
    7.1795    0.9025   17.1107 C   0  0  0  0  0  0  0  0  0  0  0  0
    9.1753    0.8605   18.4077 C   0  0  0  0  0  0  0  0  0  0  0  0
    1.7761   11.0912   24.7012 O   0  0  0  0  0  0  0  0  0  0  0  0
    0.9581   11.7928   23.7618 C   0  0  0  0  0  0  0  0  0  0  0  0
   -0.0159   12.5760   24.5979 C   0  0  0  0  0  0  0  0  0  0  0  0
   -1.1473   13.1402   23.9988 C   0  0  0  0  0  0  0  0  0  0  0  0
   -2.0783   13.8094   24.7898 C   0  0  0  0  0  0  0  0  0  0  0  0
   -1.8723   13.9235   26.1705 C   0  0  0  0  0  0  0  0  0  0  0  0
   -0.7306   13.3949   26.7735 C   0  0  0  0  0  0  0  0  0  0  0  0
    0.1999   12.7337   25.9820 C   0  0  0  0  0  0  0  0  0  0  0  0
    3.4069    9.9586   26.3131 H   0  0  0  0  0  0  0  0  0  0  0  0
    5.3638    8.5733   25.6658 H   0  0  0  0  0  0  0  0  0  0  0  0
    2.5442   10.7377   22.1506 H   0  0  0  0  0  0  0  0  0  0  0  0
    4.4911    9.5799   20.3078 H   0  0  0  0  0  0  0  0  0  0  0  0
    7.3488    6.5596   22.7798 H   0  0  0  0  0  0  0  0  0  0  0  0
    6.4351    6.7305   24.2797 H   0  0  0  0  0  0  0  0  0  0  0  0
    5.3075    7.7957   19.1302 H   0  0  0  0  0  0  0  0  0  0  0  0
    8.2048    7.7688   18.5848 H   0  0  0  0  0  0  0  0  0  0  0  0
    6.9180    7.6879   17.3814 H   0  0  0  0  0  0  0  0  0  0  0  0
    8.0843    6.4903   25.7202 H   0  0  0  0  0  0  0  0  0  0  0  0
    8.5068    9.5264   22.7304 H   0  0  0  0  0  0  0  0  0  0  0  0
   10.5528   10.3866   23.8459 H   0  0  0  0  0  0  0  0  0  0  0  0
   11.4095    9.2571   25.8773 H   0  0  0  0  0  0  0  0  0  0  0  0
    8.3315    6.4540   27.5525 H   0  0  0  0  0  0  0  0  0  0  0  0
   12.2133    7.5319   27.0228 H   0  0  0  0  0  0  0  0  0  0  0  0
   11.8111    6.5499   28.3799 H   0  0  0  0  0  0  0  0  0  0  0  0
    9.3544    3.2562   19.5046 H   0  0  0  0  0  0  0  0  0  0  0  0
    6.7350    3.3017   16.0685 H   0  0  0  0  0  0  0  0  0  0  0  0
    6.1720    5.6367   16.5221 H   0  0  0  0  0  0  0  0  0  0  0  0
    8.8109    5.6192   19.9281 H   0  0  0  0  0  0  0  0  0  0  0  0
    9.5580    0.7165   15.9026 H   0  0  0  0  0  0  0  0  0  0  0  0
   10.2064    2.3125   16.4137 H   0  0  0  0  0  0  0  0  0  0  0  0
    8.7427    2.2143   15.3612 H   0  0  0  0  0  0  0  0  0  0  0  0
    6.5737    0.8998   18.0191 H   0  0  0  0  0  0  0  0  0  0  0  0
    7.4847   -0.1049   16.8410 H   0  0  0  0  0  0  0  0  0  0  0  0
    6.6532    1.3544   16.2771 H   0  0  0  0  0  0  0  0  0  0  0  0
   10.1115    1.3516   18.6608 H   0  0  0  0  0  0  0  0  0  0  0  0
    9.3833   -0.1043   17.9310 H   0  0  0  0  0  0  0  0  0  0  0  0
    8.5290    0.7113   19.2726 H   0  0  0  0  0  0  0  0  0  0  0  0
    0.4113   11.0838   23.1200 H   0  0  0  0  0  0  0  0  0  0  0  0
    1.5464   12.4797   23.1341 H   0  0  0  0  0  0  0  0  0  0  0  0
   -1.2981   13.0444   22.9268 H   0  0  0  0  0  0  0  0  0  0  0  0
   -2.9677   14.2423   24.3352 H   0  0  0  0  0  0  0  0  0  0  0  0
   -2.6092   14.4364   26.7844 H   0  0  0  0  0  0  0  0  0  0  0  0
   -0.5689   13.4980   27.8450 H   0  0  0  0  0  0  0  0  0  0  0  0
    1.0944   12.3195   26.4525 H   0  0  0  0  0  0  0  0  0  0  0  0
    9.4778    5.8935   28.6957 H   0  0  0  0  0  0  0  0  0  0  0  0
  1  2  1  0  0  0  0
  1  6  1  0  0  0  0
  1 34  1  6  0  0  0
  2  3  1  0  0  0  0
  2 42  1  0  0  0  0
  3 43  1  0  0  0  0
  4  3  1  6  0  0  0
  4  5  1  0  0  0  0
  4  8  1  0  0  0  0
  5  6  1  6  0  0  0
  5  7  1  0  0  0  0
  6 44  1  0  0  0  0
  7  9  1  0  0  0  0
  7 45  1  0  0  0  0
  8  9  1  0  0  0  0
  8 10  1  6  0  0  0
  9 11  1  1  0  0  0
 10 46  1  0  0  0  0
 10 47  1  0  0  0  0
 11 12  1  0  0  0  0
 11 15  2  0  0  0  0
 12 13  1  0  0  0  0
 12 48  1  0  0  0  0
 13 49  1  0  0  0  0
 13 50  1  0  0  0  0
 14 13  1  6  0  0  0
 14 28  1  0  0  0  0
 14 29  1  0  0  0  0
 16 10  1  6  0  0  0
 16 18  1  0  0  0  0
 16 19  1  0  0  0  0
 17 22  1  1  0  0  0
 17 21  1  0  0  0  0
 17 18  1  0  0  0  0
 18 51  1  0  0  0  0
 19 20  1  0  0  0  0
 19 52  1  0  0  0  0
 20 21  1  0  0  0  0
 20 53  1  0  0  0  0
 21 54  1  0  0  0  0
 22 23  2  0  0  0  0
 22 24  1  0  0  0  0
 23 55  1  0  0  0  0
 23 78  1  0  0  0  0
 24 56  1  0  0  0  0
 24 57  1  0  0  0  0
 25 26  1  0  0  0  0
 25 29  1  0  0  0  0
 25 58  1  0  0  0  0
 26 27  1  0  0  0  0
 26 30  1  6  0  0  0
 27 28  1  0  0  0  0
 27 59  1  0  0  0  0
 28 60  1  0  0  0  0
 29 61  1  0  0  0  0
 30 31  1  0  0  0  0
 30 32  1  0  0  0  0
 30 33  1  0  0  0  0
 31 62  1  0  0  0  0
 31 63  1  0  0  0  0
 31 64  1  0  0  0  0
 32 65  1  0  0  0  0
 32 66  1  0  0  0  0
 32 67  1  0  0  0  0
 33 68  1  0  0  0  0
 33 69  1  0  0  0  0
 33 70  1  0  0  0  0
 34 35  1  0  0  0  0
 35 36  1  0  0  0  0
 35 71  1  0  0  0  0
 35 72  1  0  0  0  0
 36 37  1  0  0  0  0
 36 41  1  0  0  0  0
 37 38  1  0  0  0  0
 37 73  1  0  0  0  0
 38 39  1  0  0  0  0
 38 74  1  0  0  0  0
 39 40  1  0  0  0  0
 39 75  1  0  0  0  0
 40 41  1  0  0  0  0
 40 76  1  0  0  0  0
 41 77  1  0  0  0  0
M  CHG  1   8   1
M  END
$$$$
