IMH
 OpenBabel04041914433D

 34 36  0  0  1  0  0  0  0  0999 V2000
   55.2769   13.9256   43.4296 O   0  0  0  0  0  0  0  0  0  0  0  0
   54.9634   15.2278   43.9274 C   0  0  0  0  0  0  0  0  0  0  0  0
   56.2890   15.8858   44.2867 C   0  0  1  0  0  0  0  0  0  0  0  0
   57.1922   15.8095   43.0937 N   0  3  0  0  0  0  0  0  0  0  0  0
   56.1992   17.3551   44.6384 C   0  0  1  0  0  0  0  0  0  0  0  0
   57.2224   17.6427   45.5968 O   0  0  0  0  0  0  0  0  0  0  0  0
   56.4542   18.1093   43.3258 C   0  0  1  0  0  0  0  0  0  0  0  0
   57.2893   19.2506   43.5429 O   0  0  0  0  0  0  0  0  0  0  0  0
   57.1155   17.1164   42.3411 C   0  0  2  0  0  0  0  0  0  0  0  0
   56.4376   16.8677   41.0251 C   0  0  1  0  0  0  0  0  0  0  0  0
   56.7363   15.8174   40.1551 C   0  0  0  0  0  0  0  0  0  0  0  0
   55.8829   15.8821   39.0687 N   0  3  0  0  0  0  0  0  0  0  0  0
   55.0659   16.9503   39.2222 C   0  0  1  0  0  0  0  0  0  0  0  0
   54.0145   17.4071   38.3653 C   0  0  0  0  0  0  0  0  0  0  0  0
   53.6675   16.8519   37.3353 O   0  0  0  0  0  0  0  0  0  0  0  0
   53.4168   18.5473   38.8583 N   0  3  0  0  0  0  0  0  0  0  0  0
   53.7972   19.1318   40.0432 C   0  0  0  0  0  0  0  0  0  0  0  0
   54.7334   18.7195   40.8398 N   0  0  0  0  0  0  0  0  0  0  0  0
   55.3946   17.5791   40.3921 C   0  0  1  0  0  0  0  0  0  0  0  0
   55.5105   13.3519   44.1866 H   0  0  0  0  0  0  0  0  0  0  0  0
   54.3074   15.1497   44.8002 H   0  0  0  0  0  0  0  0  0  0  0  0
   54.4338   15.7756   43.1418 H   0  0  0  0  0  0  0  0  0  0  0  0
   56.7958   15.2984   45.0606 H   0  0  0  0  0  0  0  0  0  0  0  0
   58.1642   15.6027   43.3460 H   0  0  0  0  0  0  0  0  0  0  0  0
   55.2279   17.6288   45.0670 H   0  0  0  0  0  0  0  0  0  0  0  0
   56.8920   17.3541   46.4735 H   0  0  0  0  0  0  0  0  0  0  0  0
   55.4935   18.4765   42.9744 H   0  0  0  0  0  0  0  0  0  0  0  0
   57.9718   19.0099   44.2006 H   0  0  0  0  0  0  0  0  0  0  0  0
   58.1566   17.4070   42.1485 H   0  0  0  0  0  0  0  0  0  0  0  0
   57.4679   15.0250   40.2022 H   0  0  0  0  0  0  0  0  0  0  0  0
   55.8618   15.2376   38.2804 H   0  0  0  0  0  0  0  0  0  0  0  0
   52.6709   18.9326   38.3010 H   0  0  0  0  0  0  0  0  0  0  0  0
   53.2112   20.0314   40.2967 H   0  0  0  0  0  0  0  0  0  0  0  0
   56.8561   15.0294   42.5039 H   0  0  0  0  0  0  0  0  0  0  0  0
  1  2  1  0  0  0  0
  1 20  1  0  0  0  0
  2  3  1  0  0  0  0
  2 21  1  0  0  0  0
  2 22  1  0  0  0  0
  3  5  1  0  0  0  0
  3  4  1  0  0  0  0
  3 23  1  1  0  0  0
  4  9  1  0  0  0  0
  4 24  1  0  0  0  0
  4 34  1  0  0  0  0
  5  7  1  0  0  0  0
  5  6  1  0  0  0  0
  5 25  1  1  0  0  0
  6 26  1  0  0  0  0
  7  9  1  0  0  0  0
  7  8  1  0  0  0  0
  7 27  1  6  0  0  0
  8 28  1  0  0  0  0
  9 10  1  0  0  0  0
  9 29  1  6  0  0  0
 10 19  1  0  0  0  0
 10 11  1  1  0  0  0
 11 12  1  0  0  0  0
 11 30  1  0  0  0  0
 12 31  1  0  0  0  0
 13 12  1  1  0  0  0
 13 19  1  0  0  0  0
 13 14  1  0  0  0  0
 14 16  1  0  0  0  0
 14 15  2  0  0  0  0
 16 17  1  0  0  0  0
 16 32  1  0  0  0  0
 17 18  1  0  0  0  0
 17 33  1  0  0  0  0
 19 18  1  1  0  0  0
M  CHG  3   4   1  12   1  16   1
M  END
$$$$
