IMH
 OpenBabel04041914003D

 34 36  0  0  1  0  0  0  0  0999 V2000
   21.7015   90.5348   76.5468 O   0  0  0  0  0  0  0  0  0  0  0  0
   21.5453   89.1116   76.4193 C   0  0  0  0  0  0  0  0  0  0  0  0
   20.2414   88.7001   75.7023 C   0  0  1  0  0  0  0  0  0  0  0  0
   20.0406   89.7207   74.6204 N   0  3  0  0  0  0  0  0  0  0  0  0
   20.2082   87.3570   74.9390 C   0  0  1  0  0  0  0  0  0  0  0  0
   18.8769   86.8255   74.8618 O   0  0  0  0  0  0  0  0  0  0  0  0
   20.6990   87.6845   73.5043 C   0  0  1  0  0  0  0  0  0  0  0  0
   19.9154   87.0693   72.4765 O   0  0  0  0  0  0  0  0  0  0  0  0
   20.6811   89.2185   73.3387 C   0  0  2  0  0  0  0  0  0  0  0  0
   22.0168   89.8955   73.1063 C   0  0  2  0  0  0  0  0  0  0  0  0
   22.2870   91.2801   73.2413 C   0  0  0  0  0  0  0  0  0  0  0  0
   23.6413   91.5524   72.9560 N   0  3  0  0  0  0  0  0  0  0  0  0
   24.2347   90.3138   72.6353 C   0  0  1  0  0  0  0  0  0  0  0  0
   25.5818   89.9735   72.2749 C   0  0  0  0  0  0  0  0  0  0  0  0
   26.5157   90.7771   72.2073 O   0  0  0  0  0  0  0  0  0  0  0  0
   25.7354   88.6289   72.0114 N   0  3  0  0  0  0  0  0  0  0  0  0
   24.7151   87.7090   72.1109 C   0  0  0  0  0  0  0  0  0  0  0  0
   23.5104   87.9844   72.4490 N   0  0  0  0  0  0  0  0  0  0  0  0
   23.2706   89.3511   72.7151 C   0  0  1  0  0  0  0  0  0  0  0  0
   21.0422   90.9188   77.1571 H   0  0  0  0  0  0  0  0  0  0  0  0
   21.5671   88.6734   77.4151 H   0  0  0  0  0  0  0  0  0  0  0  0
   22.3975   88.7645   75.8352 H   0  0  0  0  0  0  0  0  0  0  0  0
   19.3921   88.7765   76.4006 H   0  0  0  0  0  0  0  0  0  0  0  0
   19.0550   89.9137   74.4896 H   0  0  0  0  0  0  0  0  0  0  0  0
   20.8516   86.6284   75.4403 H   0  0  0  0  0  0  0  0  0  0  0  0
   18.5484   86.5507   75.7444 H   0  0  0  0  0  0  0  0  0  0  0  0
   21.7002   87.3069   73.3997 H   0  0  0  0  0  0  0  0  0  0  0  0
   18.9804   87.3299   72.5715 H   0  0  0  0  0  0  0  0  0  0  0  0
   19.9645   89.4908   72.5503 H   0  0  0  0  0  0  0  0  0  0  0  0
   21.6012   92.0587   73.5162 H   0  0  0  0  0  0  0  0  0  0  0  0
   24.1232   92.4288   72.9524 H   0  0  0  0  0  0  0  0  0  0  0  0
   26.6610   88.3124   71.7481 H   0  0  0  0  0  0  0  0  0  0  0  0
   24.9712   86.6391   71.8805 H   0  0  0  0  0  0  0  0  0  0  0  0
   20.5456   90.5822   74.9002 H   0  0  0  0  0  0  0  0  0  0  0  0
  1  2  1  0  0  0  0
  1 20  1  0  0  0  0
  2  3  1  0  0  0  0
  2 21  1  0  0  0  0
  2 22  1  0  0  0  0
  3  5  1  0  0  0  0
  3  4  1  0  0  0  0
  3 23  1  1  0  0  0
  4  9  1  0  0  0  0
  4 24  1  0  0  0  0
  4 34  1  0  0  0  0
  5  7  1  0  0  0  0
  5  6  1  0  0  0  0
  5 25  1  1  0  0  0
  6 26  1  0  0  0  0
  7  9  1  0  0  0  0
  7  8  1  0  0  0  0
  7 27  1  6  0  0  0
  8 28  1  0  0  0  0
  9 10  1  0  0  0  0
  9 29  1  6  0  0  0
 10 19  1  0  0  0  0
 10 11  1  6  0  0  0
 11 12  1  0  0  0  0
 11 30  1  0  0  0  0
 12 31  1  0  0  0  0
 13 12  1  1  0  0  0
 13 19  1  0  0  0  0
 13 14  1  0  0  0  0
 14 16  1  0  0  0  0
 14 15  2  0  0  0  0
 16 17  1  0  0  0  0
 16 32  1  0  0  0  0
 17 18  1  0  0  0  0
 17 33  1  0  0  0  0
 19 18  1  1  0  0  0
M  CHG  3   4   1  12   1  16   1
M  END
$$$$
