IMP
 OpenBabel04041917503D

 34 36  0  0  1  0  0  0  0  0999 V2000
   42.2662   35.8049   66.6545 P   0  0  0  0  0  0  0  0  0  0  0  0
   40.9971   36.5980   66.3459 O   0  0  0  0  0  0  0  0  0  0  0  0
   43.3946   36.6935   67.1643 O   0  0  0  0  0  0  0  0  0  0  0  0
   42.0313   34.5618   67.4854 O   0  0  0  0  0  0  0  0  0  0  0  0
   42.8164   35.2109   65.1894 O   0  0  0  0  0  0  0  0  0  0  0  0
   42.8698   36.1308   64.1191 C   0  0  0  0  0  0  0  0  0  0  0  0
   43.4080   35.6019   62.7775 C   0  0  1  0  0  0  0  0  0  0  0  0
   43.8197   36.7929   62.0237 O   0  0  0  0  0  0  0  0  0  0  0  0
   44.6294   34.6605   62.7961 C   0  0  1  0  0  0  0  0  0  0  0  0
   44.3520   33.3946   62.1488 O   0  0  0  0  0  0  0  0  0  0  0  0
   45.7197   35.4034   62.0152 C   0  0  1  0  0  0  0  0  0  0  0  0
   46.5615   34.5449   61.2293 O   0  0  0  0  0  0  0  0  0  0  0  0
   44.9224   36.4108   61.1974 C   0  0  2  0  0  0  0  0  0  0  0  0
   45.7072   37.5890   60.7986 N   0  3  0  0  0  0  0  0  0  0  0  0
   46.0421   37.9556   59.5049 C   0  0  0  0  0  0  0  0  0  0  0  0
   46.7811   39.0569   59.4577 N   0  0  0  0  0  0  0  0  0  0  0  0
   46.9384   39.4246   60.7778 C   0  0  0  0  0  0  0  0  0  0  0  0
   47.6542   40.5551   61.3662 C   0  0  0  0  0  0  0  0  0  0  0  0
   48.2581   41.3945   60.7474 O   0  0  0  0  0  0  0  0  0  0  0  0
   47.5753   40.5630   62.7690 N   0  3  0  0  0  0  0  0  0  0  0  0
   46.8888   39.6089   63.5040 C   0  0  0  0  0  0  0  0  0  0  0  0
   46.2563   38.5898   62.9755 N   0  0  0  0  0  0  0  0  0  0  0  0
   46.2944   38.5343   61.6137 C   0  0  0  0  0  0  0  0  0  0  0  0
   43.4931   36.9824   64.3987 H   0  0  0  0  0  0  0  0  0  0  0  0
   41.8513   36.4914   63.9259 H   0  0  0  0  0  0  0  0  0  0  0  0
   42.5824   35.1111   62.2325 H   0  0  0  0  0  0  0  0  0  0  0  0
   44.9635   34.4716   63.8144 H   0  0  0  0  0  0  0  0  0  0  0  0
   45.1611   32.8537   62.2214 H   0  0  0  0  0  0  0  0  0  0  0  0
   46.3716   35.9233   62.7203 H   0  0  0  0  0  0  0  0  0  0  0  0
   45.9940   34.0842   60.5860 H   0  0  0  0  0  0  0  0  0  0  0  0
   44.4900   35.9173   60.3144 H   0  0  0  0  0  0  0  0  0  0  0  0
   45.7370   37.4141   58.6153 H   0  0  0  0  0  0  0  0  0  0  0  0
   48.0480   41.3190   63.2417 H   0  0  0  0  0  0  0  0  0  0  0  0
   46.9051   39.7337   64.6010 H   0  0  0  0  0  0  0  0  0  0  0  0
  1  2  2  0  0  0  0
  1  3  1  0  0  0  0
  1  4  1  0  0  0  0
  1  5  1  0  0  0  0
  5  6  1  0  0  0  0
  6  7  1  0  0  0  0
  6 24  1  0  0  0  0
  6 25  1  0  0  0  0
  7  8  1  0  0  0  0
  7  9  1  0  0  0  0
  7 26  1  6  0  0  0
  8 13  1  0  0  0  0
  9 10  1  0  0  0  0
  9 11  1  0  0  0  0
  9 27  1  1  0  0  0
 10 28  1  0  0  0  0
 11 12  1  0  0  0  0
 11 13  1  0  0  0  0
 11 29  1  1  0  0  0
 12 30  1  0  0  0  0
 13 14  1  0  0  0  0
 13 31  1  6  0  0  0
 14 15  2  0  0  0  0
 14 23  1  0  0  0  0
 15 16  1  0  0  0  0
 15 32  1  0  0  0  0
 16 17  1  0  0  0  0
 17 18  1  0  0  0  0
 17 23  2  0  0  0  0
 18 19  2  0  0  0  0
 18 20  1  0  0  0  0
 20 21  1  0  0  0  0
 20 33  1  0  0  0  0
 21 22  2  0  0  0  0
 21 34  1  0  0  0  0
 22 23  1  0  0  0  0
M  CHG  2  14   1  20   1
M  END
$$$$
