IMU
 OpenBabel04041914193D

 39 41  0  0  1  0  0  0  0  0999 V2000
   23.4640   11.0047   47.1519 P   0  0  0  0  0  0  0  0  0  0  0  0
   18.0340    9.8083   54.4171 C   0  0  2  0  0  0  0  0  0  0  0  0
   23.9852   11.8958   48.2628 O   0  0  0  0  0  0  0  0  0  0  0  0
   22.6266   11.7015   46.0991 O   0  0  0  0  0  0  0  0  0  0  0  0
   24.4407    9.9720   46.6330 O   0  0  0  0  0  0  0  0  0  0  0  0
   22.3738   10.0936   47.9882 O   0  0  0  0  0  0  0  0  0  0  0  0
   21.7969    8.9634   47.3692 C   0  0  0  0  0  0  0  0  0  0  0  0
   20.9246    8.2674   48.4088 C   0  0  1  0  0  0  0  0  0  0  0  0
   21.4381    8.3744   49.8219 N   0  3  0  0  0  0  0  0  0  0  0  0
   19.5231    8.8554   48.4915 C   0  0  1  0  0  0  0  0  0  0  0  0
   18.6953    8.4595   47.4004 O   0  0  0  0  0  0  0  0  0  0  0  0
   19.0277    8.2851   49.8211 C   0  0  1  0  0  0  0  0  0  0  0  0
   18.6161    6.9200   49.6484 O   0  0  0  0  0  0  0  0  0  0  0  0
   20.2521    8.4608   50.7615 C   0  0  2  0  0  0  0  0  0  0  0  0
   20.1351    9.7862   51.4477 C   0  0  1  0  0  0  0  0  0  0  0  0
   20.6375   10.9964   50.9913 C   0  0  0  0  0  0  0  0  0  0  0  0
   20.2111   12.0209   51.8125 N   0  3  0  0  0  0  0  0  0  0  0  0
   19.4327   11.4693   52.7919 C   0  0  2  0  0  0  0  0  0  0  0  0
   18.7481   12.0891   53.8814 C   0  0  0  0  0  0  0  0  0  0  0  0
   18.7433   13.2946   54.1185 O   0  0  0  0  0  0  0  0  0  0  0  0
   18.0907   11.1862   54.6713 N   0  3  0  0  0  0  0  0  0  0  0  0
   17.3029    9.1134   55.3036 N   0  0  0  0  0  0  0  0  0  0  0  0
   18.6391    9.2387   53.4181 N   0  0  0  0  0  0  0  0  0  0  0  0
   19.3755   10.1143   52.5985 C   0  0  1  0  0  0  0  0  0  0  0  0
   22.5462    8.2392   47.0329 H   0  0  0  0  0  0  0  0  0  0  0  0
   21.1659    9.2461   46.5195 H   0  0  0  0  0  0  0  0  0  0  0  0
   20.8540    7.1966   48.1807 H   0  0  0  0  0  0  0  0  0  0  0  0
   22.0700    7.6014   50.0285 H   0  0  0  0  0  0  0  0  0  0  0  0
   19.5408    9.9493   48.5447 H   0  0  0  0  0  0  0  0  0  0  0  0
   18.7486    7.4963   47.2902 H   0  0  0  0  0  0  0  0  0  0  0  0
   18.1709    8.8540   50.1871 H   0  0  0  0  0  0  0  0  0  0  0  0
   17.8194    6.9565   49.0793 H   0  0  0  0  0  0  0  0  0  0  0  0
   20.3759    7.6383   51.4843 H   0  0  0  0  0  0  0  0  0  0  0  0
   21.2495   11.2226   50.1207 H   0  0  0  0  0  0  0  0  0  0  0  0
   20.4440   12.9983   51.6889 H   0  0  0  0  0  0  0  0  0  0  0  0
   17.5736   11.5653   55.4358 H   0  0  0  0  0  0  0  0  0  0  0  0
   17.2382    8.1030   55.2076 H   0  0  0  0  0  0  0  0  0  0  0  0
   16.8432    9.5196   56.1044 H   0  0  0  0  0  0  0  0  0  0  0  0
   22.0081    9.2447   49.8536 H   0  0  0  0  0  0  0  0  0  0  0  0
  1  3  2  0  0  0  0
  1  4  1  0  0  0  0
  1  5  1  0  0  0  0
  1  6  1  0  0  0  0
  2 23  1  0  0  0  0
  2 22  1  1  0  0  0
  2 21  1  0  0  0  0
  6  7  1  0  0  0  0
  7  8  1  0  0  0  0
  7 25  1  0  0  0  0
  7 26  1  0  0  0  0
  8  9  1  0  0  0  0
  8 10  1  0  0  0  0
  8 27  1  6  0  0  0
  9 14  1  0  0  0  0
  9 28  1  0  0  0  0
  9 39  1  0  0  0  0
 10 11  1  0  0  0  0
 10 12  1  0  0  0  0
 10 29  1  1  0  0  0
 11 30  1  0  0  0  0
 12 13  1  0  0  0  0
 12 14  1  0  0  0  0
 12 31  1  1  0  0  0
 13 32  1  0  0  0  0
 14 15  1  0  0  0  0
 14 33  1  1  0  0  0
 15 16  1  6  0  0  0
 15 24  1  0  0  0  0
 16 17  1  0  0  0  0
 16 34  1  0  0  0  0
 17 35  1  0  0  0  0
 18 17  1  1  0  0  0
 18 19  1  0  0  0  0
 18 24  1  0  0  0  0
 19 20  2  0  0  0  0
 19 21  1  0  0  0  0
 21 36  1  0  0  0  0
 22 37  1  0  0  0  0
 22 38  1  0  0  0  0
 24 23  1  6  0  0  0
M  CHG  3   9   1  17   1  21   1
M  END
$$$$
