IMU
 OpenBabel04041914073D

 39 41  0  0  1  0  0  0  0  0999 V2000
   12.3546   82.8453   41.2611 P   0  0  0  0  0  0  0  0  0  0  0  0
    4.9925   84.0424   46.5562 C   0  0  1  0  0  0  0  0  0  0  0  0
   13.4316   83.0516   42.3054 O   0  0  0  0  0  0  0  0  0  0  0  0
   12.5799   83.5612   39.9467 O   0  0  0  0  0  0  0  0  0  0  0  0
   11.7851   81.4463   41.1693 O   0  0  0  0  0  0  0  0  0  0  0  0
   11.0536   83.6033   41.8824 O   0  0  0  0  0  0  0  0  0  0  0  0
   11.1830   84.7034   42.7373 C   0  0  0  0  0  0  0  0  0  0  0  0
   10.0830   85.6290   42.2736 C   0  0  1  0  0  0  0  0  0  0  0  0
    8.7793   84.9006   42.1780 N   0  3  0  0  0  0  0  0  0  0  0  0
    9.8844   86.7596   43.2460 C   0  0  1  0  0  0  0  0  0  0  0  0
    9.8341   87.9659   42.4902 O   0  0  0  0  0  0  0  0  0  0  0  0
    8.5696   86.4555   43.9797 C   0  0  1  0  0  0  0  0  0  0  0  0
    7.7206   87.6031   43.9924 O   0  0  0  0  0  0  0  0  0  0  0  0
    7.8843   85.2454   43.3039 C   0  0  2  0  0  0  0  0  0  0  0  0
    7.7659   84.0825   44.2302 C   0  0  1  0  0  0  0  0  0  0  0  0
    8.6741   83.0239   44.3045 C   0  0  0  0  0  0  0  0  0  0  0  0
    8.3185   82.1496   45.2918 N   0  3  0  0  0  0  0  0  0  0  0  0
    7.1695   82.6421   45.8623 C   0  0  2  0  0  0  0  0  0  0  0  0
    6.4206   82.0925   46.9376 C   0  0  0  0  0  0  0  0  0  0  0  0
    6.6783   81.0782   47.5569 O   0  0  0  0  0  0  0  0  0  0  0  0
    5.3168   82.8720   47.2232 N   0  3  0  0  0  0  0  0  0  0  0  0
    3.8608   84.6622   46.9996 N   0  0  0  0  0  0  0  0  0  0  0  0
    5.6930   84.5552   45.5693 N   0  0  0  0  0  0  0  0  0  0  0  0
    6.8074   83.7916   45.2351 C   0  0  1  0  0  0  0  0  0  0  0  0
   12.1377   85.2334   42.6866 H   0  0  0  0  0  0  0  0  0  0  0  0
   10.9997   84.3982   43.7779 H   0  0  0  0  0  0  0  0  0  0  0  0
   10.2810   85.9815   41.2607 H   0  0  0  0  0  0  0  0  0  0  0  0
    8.3679   85.0433   41.2579 H   0  0  0  0  0  0  0  0  0  0  0  0
   10.7178   86.8128   43.9641 H   0  0  0  0  0  0  0  0  0  0  0  0
    9.8531   88.7315   43.0803 H   0  0  0  0  0  0  0  0  0  0  0  0
    8.8109   86.1812   45.0109 H   0  0  0  0  0  0  0  0  0  0  0  0
    8.1896   88.3017   44.4754 H   0  0  0  0  0  0  0  0  0  0  0  0
    6.9099   85.5337   42.8488 H   0  0  0  0  0  0  0  0  0  0  0  0
    9.5702   82.8209   43.7255 H   0  0  0  0  0  0  0  0  0  0  0  0
    8.8258   81.3056   45.5334 H   0  0  0  0  0  0  0  0  0  0  0  0
    4.7090   82.5670   47.9759 H   0  0  0  0  0  0  0  0  0  0  0  0
    3.5558   85.5019   46.5442 H   0  0  0  0  0  0  0  0  0  0  0  0
    3.2667   84.3143   47.7520 H   0  0  0  0  0  0  0  0  0  0  0  0
    9.0230   83.8930   42.1973 H   0  0  0  0  0  0  0  0  0  0  0  0
  1  3  2  0  0  0  0
  1  4  1  0  0  0  0
  1  5  1  0  0  0  0
  1  6  1  0  0  0  0
  2 23  1  0  0  0  0
  2 22  1  1  0  0  0
  2 21  1  0  0  0  0
  6  7  1  0  0  0  0
  7  8  1  0  0  0  0
  7 25  1  0  0  0  0
  7 26  1  0  0  0  0
  8  9  1  0  0  0  0
  8 10  1  0  0  0  0
  8 27  1  6  0  0  0
  9 14  1  0  0  0  0
  9 28  1  0  0  0  0
  9 39  1  0  0  0  0
 10 11  1  0  0  0  0
 10 12  1  0  0  0  0
 10 29  1  1  0  0  0
 11 30  1  0  0  0  0
 12 13  1  0  0  0  0
 12 14  1  0  0  0  0
 12 31  1  1  0  0  0
 13 32  1  0  0  0  0
 14 15  1  0  0  0  0
 14 33  1  6  0  0  0
 15 16  1  1  0  0  0
 15 24  1  0  0  0  0
 16 17  1  0  0  0  0
 16 34  1  0  0  0  0
 17 35  1  0  0  0  0
 18 17  1  6  0  0  0
 18 19  1  0  0  0  0
 18 24  1  0  0  0  0
 19 20  2  0  0  0  0
 19 21  1  0  0  0  0
 21 36  1  0  0  0  0
 22 37  1  0  0  0  0
 22 38  1  0  0  0  0
 24 23  1  1  0  0  0
M  CHG  3   9   1  17   1  21   1
M  END
$$$$
