IN7
 OpenBabel04041914003D

 47 49  0  0  0  0  0  0  0  0999 V2000
   16.4306    8.1256   18.8284 C   0  0  0  0  0  0  0  0  0  0  0  0
   16.3960    8.4633   20.1955 C   0  0  0  0  0  0  0  0  0  0  0  0
   15.8964    7.5960   21.1582 C   0  0  0  0  0  0  0  0  0  0  0  0
   18.0213    9.2229   15.6328 C   0  0  0  0  0  0  0  0  0  0  0  0
   15.9015    6.8647   18.4648 C   0  0  0  0  0  0  0  0  0  0  0  0
   15.0744    3.8681   21.5690 O   0  0  0  0  0  0  0  0  0  0  0  0
   15.4015    6.3507   20.7768 C   0  0  0  0  0  0  0  0  0  0  0  0
   15.4026    5.9695   19.4273 C   0  0  0  0  0  0  0  0  0  0  0  0
   11.8296    7.3260   21.5048 O   0  0  0  0  0  0  0  0  0  0  0  0
   14.9795    5.2022   22.0853 S   0  0  0  0  0  0  0  0  0  0  0  0
   18.4980   10.5894   16.1015 C   0  0  0  0  0  0  0  0  0  0  0  0
   18.6400   10.8582   17.5869 C   0  0  0  0  0  0  0  0  0  0  0  0
   17.4435   10.3141   18.3502 C   0  0  0  0  0  0  0  0  0  0  0  0
   17.0229    8.9903   17.8997 N   0  0  0  0  0  0  0  0  0  0  0  0
   16.8477    8.7323   16.4773 C   0  0  0  0  0  0  0  0  0  0  0  0
   20.6636   13.0017   13.2985 C   0  0  0  0  0  0  0  0  0  0  0  0
   21.2402   12.7346   14.5461 C   0  0  0  0  0  0  0  0  0  0  0  0
   20.5544   11.9475   15.4682 C   0  0  0  0  0  0  0  0  0  0  0  0
   19.3014   11.4204   15.1358 C   0  0  0  0  0  0  0  0  0  0  0  0
   18.7030   11.7385   13.8945 C   0  0  0  0  0  0  0  0  0  0  0  0
   19.3957   12.5139   12.9735 C   0  0  0  0  0  0  0  0  0  0  0  0
   15.8192    5.5959   23.2245 O   0  0  0  0  0  0  0  0  0  0  0  0
   13.4593    5.4539   22.6646 N   0  0  0  0  0  0  0  0  0  0  0  0
   12.2586    5.0438   21.9532 C   0  0  0  0  0  0  0  0  0  0  0  0
   11.8074    6.1983   21.0348 C   0  0  0  0  0  0  0  0  0  0  0  0
   11.5078    5.7766   19.8997 O   0  0  0  0  0  0  0  0  0  0  0  0
   16.7472    9.4245   20.5431 H   0  0  0  0  0  0  0  0  0  0  0  0
   15.8573    7.9086   22.1992 H   0  0  0  0  0  0  0  0  0  0  0  0
   18.8224    8.4732   15.6203 H   0  0  0  0  0  0  0  0  0  0  0  0
   17.6564    9.3298   14.5988 H   0  0  0  0  0  0  0  0  0  0  0  0
   15.8616    6.5585   17.4241 H   0  0  0  0  0  0  0  0  0  0  0  0
   14.9823    5.0167   19.1145 H   0  0  0  0  0  0  0  0  0  0  0  0
   17.5499   11.1223   15.9707 H   0  0  0  0  0  0  0  0  0  0  0  0
   19.5717   10.4580   18.0081 H   0  0  0  0  0  0  0  0  0  0  0  0
   18.6522   11.9528   17.7261 H   0  0  0  0  0  0  0  0  0  0  0  0
   17.7845   10.2790   19.3839 H   0  0  0  0  0  0  0  0  0  0  0  0
   16.6155   11.0272   18.2832 H   0  0  0  0  0  0  0  0  0  0  0  0
   15.9238    9.1949   16.1155 H   0  0  0  0  0  0  0  0  0  0  0  0
   16.7910    7.6618   16.2906 H   0  0  0  0  0  0  0  0  0  0  0  0
   21.2095   13.6021   12.5742 H   0  0  0  0  0  0  0  0  0  0  0  0
   22.2193   13.1308   14.7933 H   0  0  0  0  0  0  0  0  0  0  0  0
   20.9894   11.7327   16.4383 H   0  0  0  0  0  0  0  0  0  0  0  0
   17.7037   11.3704   13.6557 H   0  0  0  0  0  0  0  0  0  0  0  0
   18.9539   12.7326   12.0053 H   0  0  0  0  0  0  0  0  0  0  0  0
   13.3303    5.9622   23.5278 H   0  0  0  0  0  0  0  0  0  0  0  0
   11.4442    4.8507   22.6806 H   0  0  0  0  0  0  0  0  0  0  0  0
   12.4432    4.1195   21.4032 H   0  0  0  0  0  0  0  0  0  0  0  0
  1 14  1  0  0  0  0
  1  5  2  0  0  0  0
  1  2  1  0  0  0  0
  2  3  2  0  0  0  0
  2 27  1  0  0  0  0
  3  7  1  0  0  0  0
  3 28  1  0  0  0  0
  4 11  1  0  0  0  0
  4 15  1  0  0  0  0
  4 29  1  0  0  0  0
  4 30  1  0  0  0  0
  5  8  1  0  0  0  0
  5 31  1  0  0  0  0
  6 10  2  0  0  0  0
  7 10  1  0  0  0  0
  7  8  2  0  0  0  0
  8 32  1  0  0  0  0
  9 25  2  0  0  0  0
 10 23  1  0  0  0  0
 10 22  2  0  0  0  0
 11 12  1  0  0  0  0
 11 19  1  0  0  0  0
 11 33  1  0  0  0  0
 12 13  1  0  0  0  0
 12 34  1  0  0  0  0
 12 35  1  0  0  0  0
 13 14  1  0  0  0  0
 13 36  1  0  0  0  0
 13 37  1  0  0  0  0
 14 15  1  0  0  0  0
 15 38  1  0  0  0  0
 15 39  1  0  0  0  0
 16 17  1  0  0  0  0
 16 21  2  0  0  0  0
 16 40  1  0  0  0  0
 17 18  2  0  0  0  0
 17 41  1  0  0  0  0
 18 19  1  0  0  0  0
 18 42  1  0  0  0  0
 19 20  2  0  0  0  0
 20 21  1  0  0  0  0
 20 43  1  0  0  0  0
 21 44  1  0  0  0  0
 23 24  1  0  0  0  0
 23 45  1  0  0  0  0
 24 25  1  0  0  0  0
 24 46  1  0  0  0  0
 24 47  1  0  0  0  0
 25 26  1  0  0  0  0
M  END
$$$$
