IN9
 OpenBabel04041917093D

 36 37  0  0  1  0  0  0  0  0999 V2000
   30.2521   46.6560   48.5330 C   0  0  0  0  0  0  0  0  0  0  0  0
   31.5494   48.6275   48.9395 C   0  0  0  0  0  0  0  0  0  0  0  0
   28.0386   45.5953   48.7967 C   0  0  0  0  0  0  0  0  0  0  0  0
   25.2513   44.2227   47.3105 C   0  0  0  0  0  0  0  0  0  0  0  0
   24.5150   46.5928   46.8654 C   0  0  0  0  0  0  0  0  0  0  0  0
   25.3803   45.5336   46.5836 C   0  0  0  0  0  0  0  0  0  0  0  0
   26.3960   45.7365   45.6446 C   0  0  0  0  0  0  0  0  0  0  0  0
   26.5411   46.9600   44.9976 C   0  0  0  0  0  0  0  0  0  0  0  0
   25.6711   48.0005   45.2920 C   0  0  0  0  0  0  0  0  0  0  0  0
   24.6591   47.8196   46.2255 C   0  0  0  0  0  0  0  0  0  0  0  0
   24.3491   41.3861   50.6771 C   0  0  0  0  0  0  0  0  0  0  0  0
   29.9447   48.1151   49.3586 S   0  0  0  0  0  0  0  0  0  0  0  0
   31.4450   46.5872   47.9853 N   0  0  0  0  0  0  0  0  0  0  0  0
   32.1919   47.7294   48.2146 N   0  0  0  0  0  0  0  0  0  0  0  0
   29.3677   45.5948   48.4550 N   0  0  0  0  0  0  0  0  0  0  0  0
   32.2316   50.1203   49.4120 S   0  0  0  0  0  0  0  0  0  0  0  0
   27.4013   46.5219   49.2638 O   0  0  0  0  0  0  0  0  0  0  0  0
   27.4113   44.3983   48.5076 N   0  0  0  0  0  0  0  0  0  0  0  0
   25.9582   44.2255   48.6778 C   0  0  2  0  0  0  0  0  0  0  0  0
   25.7244   42.8533   49.3206 C   0  0  0  0  0  0  0  0  0  0  0  0
   26.4833   41.9066   49.0720 O   0  0  0  0  0  0  0  0  0  0  0  0
   24.5946   42.6822   50.0877 N   0  0  0  0  0  0  0  0  0  0  0  0
   27.2357   44.7313   45.3511 F   0  0  0  0  0  0  0  0  0  0  0  0
   27.4923   47.1183   44.0704 F   0  0  0  0  0  0  0  0  0  0  0  0
   25.7821   49.1713   44.6463 F   0  0  0  0  0  0  0  0  0  0  0  0
   23.8001   48.8144   46.4895 F   0  0  0  0  0  0  0  0  0  0  0  0
   23.5165   46.4113   47.7426 F   0  0  0  0  0  0  0  0  0  0  0  0
   24.1870   43.9798   47.4227 H   0  0  0  0  0  0  0  0  0  0  0  0
   25.6636   43.4252   46.6774 H   0  0  0  0  0  0  0  0  0  0  0  0
   23.4574   41.4068   51.3075 H   0  0  0  0  0  0  0  0  0  0  0  0
   25.2181   41.0866   51.2707 H   0  0  0  0  0  0  0  0  0  0  0  0
   24.2131   40.6667   49.8643 H   0  0  0  0  0  0  0  0  0  0  0  0
   29.7698   44.7936   47.9956 H   0  0  0  0  0  0  0  0  0  0  0  0
   27.9308   43.5815   48.2091 H   0  0  0  0  0  0  0  0  0  0  0  0
   25.5595   45.0113   49.3268 H   0  0  0  0  0  0  0  0  0  0  0  0
   24.0252   43.4755   50.3733 H   0  0  0  0  0  0  0  0  0  0  0  0
  1 15  1  0  0  0  0
  1 13  2  0  0  0  0
  1 12  1  0  0  0  0
  2 16  1  0  0  0  0
  2 14  2  0  0  0  0
  2 12  1  0  0  0  0
  3 15  1  0  0  0  0
  3 17  2  0  0  0  0
  3 18  1  0  0  0  0
  4 19  1  0  0  0  0
  4  6  1  0  0  0  0
  4 28  1  0  0  0  0
  4 29  1  0  0  0  0
  5  6  2  0  0  0  0
  5 10  1  0  0  0  0
  5 27  1  0  0  0  0
  6  7  1  0  0  0  0
  7  8  2  0  0  0  0
  7 23  1  0  0  0  0
  8  9  1  0  0  0  0
  8 24  1  0  0  0  0
  9 10  2  0  0  0  0
  9 25  1  0  0  0  0
 10 26  1  0  0  0  0
 11 22  1  0  0  0  0
 11 30  1  0  0  0  0
 11 31  1  0  0  0  0
 11 32  1  0  0  0  0
 13 14  1  0  0  0  0
 15 33  1  0  0  0  0
 18 19  1  0  0  0  0
 18 34  1  0  0  0  0
 19 20  1  0  0  0  0
 19 35  1  1  0  0  0
 20 22  1  0  0  0  0
 20 21  2  0  0  0  0
 22 36  1  0  0  0  0
M  END
$$$$
