IND
 OpenBabel04041913513D

 16 17  0  0  1  0  0  0  0  0999 V2000
   28.5605    7.3416    3.1565 N   0  3  0  0  0  0  0  0  0  0  0  0
   28.3911    6.5906    2.0233 C   0  0  0  0  0  0  0  0  0  0  0  0
   27.4716    5.6068    2.3034 C   0  0  0  0  0  0  0  0  0  0  0  0
   26.1398    5.0995    4.4827 C   0  0  0  0  0  0  0  0  0  0  0  0
   25.9798    5.5196    5.8076 C   0  0  0  0  0  0  0  0  0  0  0  0
   26.7085    6.5989    6.3026 C   0  0  0  0  0  0  0  0  0  0  0  0
   27.6103    7.2967    5.4919 C   0  0  0  0  0  0  0  0  0  0  0  0
   27.7609    6.8602    4.1695 C   0  0  2  0  0  0  0  0  0  0  0  0
   27.0542    5.7754    3.6518 C   0  0  1  0  0  0  0  0  0  0  0  0
   29.1800    8.1334    3.2445 H   0  0  0  0  0  0  0  0  0  0  0  0
   28.9396    6.8185    1.1194 H   0  0  0  0  0  0  0  0  0  0  0  0
   27.1288    4.8460    1.6132 H   0  0  0  0  0  0  0  0  0  0  0  0
   25.5673    4.2604    4.1004 H   0  0  0  0  0  0  0  0  0  0  0  0
   25.2793    4.9971    6.4530 H   0  0  0  0  0  0  0  0  0  0  0  0
   26.5738    6.9055    7.3373 H   0  0  0  0  0  0  0  0  0  0  0  0
   28.1697    8.1402    5.8801 H   0  0  0  0  0  0  0  0  0  0  0  0
  1  2  1  0  0  0  0
  1 10  1  0  0  0  0
  2  3  1  0  0  0  0
  2 11  1  0  0  0  0
  3 12  1  0  0  0  0
  4  5  1  0  0  0  0
  4  9  1  0  0  0  0
  4 13  1  0  0  0  0
  5  6  1  0  0  0  0
  5 14  1  0  0  0  0
  6  7  1  0  0  0  0
  6 15  1  0  0  0  0
  7  8  1  0  0  0  0
  7 16  1  0  0  0  0
  8  1  1  1  0  0  0
  8  9  1  0  0  0  0
  9  3  1  1  0  0  0
M  CHG  1   1   1
M  END
$$$$
