INH
 OpenBabel04041916513D

 70 71  0  0  1  0  0  0  0  0999 V2000
  -20.8892   92.7412   80.0550 C   0  0  0  0  0  0  0  0  0  0  0  0
  -20.7140   91.7629   81.2120 C   0  0  2  0  0  0  0  0  0  0  0  0
  -21.4993   92.1931   82.4846 C   0  0  0  0  0  0  0  0  0  0  0  0
  -22.6249   92.7359   82.2531 O   0  0  0  0  0  0  0  0  0  0  0  0
  -20.8686   92.0220   83.5587 O   0  0  0  0  0  0  0  0  0  0  0  0
  -19.2190   91.5423   81.3993 N   0  3  0  0  0  0  0  0  0  0  0  0
  -18.4559   92.7707   81.8292 C   0  0  1  0  0  0  0  0  0  0  0  0
  -17.5931   92.4358   83.0330 C   0  0  0  0  0  0  0  0  0  0  0  0
  -16.6994   93.6143   83.4223 C   0  0  0  0  0  0  0  0  0  0  0  0
  -15.9591   93.4497   84.7153 C   0  0  0  0  0  0  0  0  0  0  0  0
  -16.1185   94.4034   85.7286 C   0  0  0  0  0  0  0  0  0  0  0  0
  -15.4038   94.3012   86.9200 C   0  0  0  0  0  0  0  0  0  0  0  0
  -14.5139   93.2480   87.1059 C   0  0  0  0  0  0  0  0  0  0  0  0
  -14.3403   92.2984   86.1008 C   0  0  0  0  0  0  0  0  0  0  0  0
  -15.0581   92.3993   84.9078 C   0  0  0  0  0  0  0  0  0  0  0  0
  -17.5857   93.1647   80.6386 C   0  0  0  0  0  0  0  0  0  0  0  0
  -17.0753   92.3326   79.9187 O   0  0  0  0  0  0  0  0  0  0  0  0
  -17.5377   94.5173   80.3837 N   0  0  0  0  0  0  0  0  0  0  0  0
  -16.6877   95.0147   79.3294 C   0  0  1  0  0  0  0  0  0  0  0  0
  -17.3001   96.2537   78.7276 C   0  0  0  0  0  0  0  0  0  0  0  0
  -18.7139   96.0510   78.2254 C   0  0  0  0  0  0  0  0  0  0  0  0
  -19.1259   97.4052   77.7084 C   0  0  0  0  0  0  0  0  0  0  0  0
  -20.4844   97.4163   77.2184 N   0  0  0  0  0  0  0  0  0  0  0  0
  -21.2103   98.5411   77.2003 C   0  0  0  0  0  0  0  0  0  0  0  0
  -22.4501   98.5216   76.7268 N   0  0  0  0  0  0  0  0  0  0  0  0
  -20.7009   99.6938   77.6422 N   0  0  0  0  0  0  0  0  0  0  0  0
  -15.3262   95.4467   79.8757 C   0  0  0  0  0  0  0  0  0  0  0  0
  -15.2127   95.8655   81.0153 O   0  0  0  0  0  0  0  0  0  0  0  0
  -14.3517   95.4079   78.8951 N   0  0  0  0  0  0  0  0  0  0  0  0
  -12.9925   95.7070   79.0578 C   0  0  0  0  0  0  0  0  0  0  0  0
  -12.1324   95.2621   78.0501 C   0  0  0  0  0  0  0  0  0  0  0  0
  -10.7650   95.4947   78.1416 C   0  0  0  0  0  0  0  0  0  0  0  0
  -10.2528   96.1982   79.2281 C   0  0  0  0  0  0  0  0  0  0  0  0
  -11.1068   96.6621   80.2210 C   0  0  0  0  0  0  0  0  0  0  0  0
  -12.4785   96.4135   80.1396 C   0  0  0  0  0  0  0  0  0  0  0  0
  -21.9481   92.9260   79.8638 H   0  0  0  0  0  0  0  0  0  0  0  0
  -20.4425   92.3572   79.1322 H   0  0  0  0  0  0  0  0  0  0  0  0
  -20.4315   93.7133   80.2681 H   0  0  0  0  0  0  0  0  0  0  0  0
  -21.0917   90.7858   80.9033 H   0  0  0  0  0  0  0  0  0  0  0  0
  -19.1282   90.8375   82.1454 H   0  0  0  0  0  0  0  0  0  0  0  0
  -19.1748   93.5660   82.0647 H   0  0  0  0  0  0  0  0  0  0  0  0
  -16.9710   91.5658   82.7982 H   0  0  0  0  0  0  0  0  0  0  0  0
  -18.2429   92.1741   83.8736 H   0  0  0  0  0  0  0  0  0  0  0  0
  -17.3205   94.5152   83.4838 H   0  0  0  0  0  0  0  0  0  0  0  0
  -15.9520   93.7735   82.6373 H   0  0  0  0  0  0  0  0  0  0  0  0
  -16.8048   95.2373   85.5985 H   0  0  0  0  0  0  0  0  0  0  0  0
  -15.5431   95.0429   87.7019 H   0  0  0  0  0  0  0  0  0  0  0  0
  -13.9567   93.1681   88.0362 H   0  0  0  0  0  0  0  0  0  0  0  0
  -13.6431   91.4766   86.2471 H   0  0  0  0  0  0  0  0  0  0  0  0
  -14.9031   91.6572   84.1302 H   0  0  0  0  0  0  0  0  0  0  0  0
  -17.9655   95.1712   81.0349 H   0  0  0  0  0  0  0  0  0  0  0  0
  -16.5665   94.2442   78.5626 H   0  0  0  0  0  0  0  0  0  0  0  0
  -16.6777   96.5938   77.8910 H   0  0  0  0  0  0  0  0  0  0  0  0
  -17.3098   97.0534   79.4799 H   0  0  0  0  0  0  0  0  0  0  0  0
  -19.3849   95.7351   79.0301 H   0  0  0  0  0  0  0  0  0  0  0  0
  -18.7473   95.3050   77.4269 H   0  0  0  0  0  0  0  0  0  0  0  0
  -18.4626   97.7032   76.8910 H   0  0  0  0  0  0  0  0  0  0  0  0
  -19.0225   98.1088   78.5399 H   0  0  0  0  0  0  0  0  0  0  0  0
  -20.9168   96.5560   76.8973 H   0  0  0  0  0  0  0  0  0  0  0  0
  -23.0121   99.3604   76.6979 H   0  0  0  0  0  0  0  0  0  0  0  0
  -22.8711   97.6673   76.3843 H   0  0  0  0  0  0  0  0  0  0  0  0
  -21.2346  100.5538   77.6414 H   0  0  0  0  0  0  0  0  0  0  0  0
  -14.6118   95.0572   77.9843 H   0  0  0  0  0  0  0  0  0  0  0  0
  -12.5194   94.6978   77.2053 H   0  0  0  0  0  0  0  0  0  0  0  0
  -10.0950   95.1256   77.3692 H   0  0  0  0  0  0  0  0  0  0  0  0
   -9.1813   96.3843   79.3011 H   0  0  0  0  0  0  0  0  0  0  0  0
  -10.7117   97.2170   81.0684 H   0  0  0  0  0  0  0  0  0  0  0  0
  -13.1251   96.7969   80.9225 H   0  0  0  0  0  0  0  0  0  0  0  0
  -18.7951   91.1683   80.5375 H   0  0  0  0  0  0  0  0  0  0  0  0
  -19.7626   99.7529   78.0040 H   0  0  0  0  0  0  0  0  0  0  0  0
  1  2  1  0  0  0  0
  1 36  1  0  0  0  0
  1 37  1  0  0  0  0
  1 38  1  0  0  0  0
  2  6  1  0  0  0  0
  2  3  1  0  0  0  0
  2 39  1  6  0  0  0
  3  5  2  0  0  0  0
  3  4  1  0  0  0  0
  6  7  1  0  0  0  0
  6 40  1  0  0  0  0
  6 69  1  0  0  0  0
  7 16  1  0  0  0  0
  7  8  1  0  0  0  0
  7 41  1  1  0  0  0
  8  9  1  0  0  0  0
  8 42  1  0  0  0  0
  8 43  1  0  0  0  0
  9 10  1  0  0  0  0
  9 44  1  0  0  0  0
  9 45  1  0  0  0  0
 10 15  2  0  0  0  0
 10 11  1  0  0  0  0
 11 12  2  0  0  0  0
 11 46  1  0  0  0  0
 12 13  1  0  0  0  0
 12 47  1  0  0  0  0
 13 14  2  0  0  0  0
 13 48  1  0  0  0  0
 14 15  1  0  0  0  0
 14 49  1  0  0  0  0
 15 50  1  0  0  0  0
 16 18  1  0  0  0  0
 16 17  2  0  0  0  0
 18 19  1  0  0  0  0
 18 51  1  0  0  0  0
 19 27  1  0  0  0  0
 19 20  1  0  0  0  0
 19 52  1  6  0  0  0
 20 21  1  0  0  0  0
 20 53  1  0  0  0  0
 20 54  1  0  0  0  0
 21 22  1  0  0  0  0
 21 55  1  0  0  0  0
 21 56  1  0  0  0  0
 22 23  1  0  0  0  0
 22 57  1  0  0  0  0
 22 58  1  0  0  0  0
 23 24  1  0  0  0  0
 23 59  1  0  0  0  0
 24 26  2  0  0  0  0
 24 25  1  0  0  0  0
 25 60  1  0  0  0  0
 25 61  1  0  0  0  0
 26 62  1  0  0  0  0
 26 70  1  0  0  0  0
 27 29  1  0  0  0  0
 27 28  2  0  0  0  0
 29 30  1  0  0  0  0
 29 63  1  0  0  0  0
 30 35  2  0  0  0  0
 30 31  1  0  0  0  0
 31 32  2  0  0  0  0
 31 64  1  0  0  0  0
 32 33  1  0  0  0  0
 32 65  1  0  0  0  0
 33 34  2  0  0  0  0
 33 66  1  0  0  0  0
 34 35  1  0  0  0  0
 34 67  1  0  0  0  0
 35 68  1  0  0  0  0
M  CHG  1   6   1
M  END
$$$$
