IOA
 OpenBabel04041915043D

 34 35  0  0  0  0  0  0  0  0999 V2000
   -3.8186    2.6290   14.5905 C   0  0  0  0  0  0  0  0  0  0  0  0
   -4.2473    1.5762   15.4196 C   0  0  0  0  0  0  0  0  0  0  0  0
   -5.5814    1.4929   15.8252 C   0  0  0  0  0  0  0  0  0  0  0  0
   -6.4907    2.4750   15.4145 C   0  0  0  0  0  0  0  0  0  0  0  0
   -6.0590    3.5236   14.5918 C   0  0  0  0  0  0  0  0  0  0  0  0
   -4.7224    3.6148   14.1597 C   0  0  0  0  0  0  0  0  0  0  0  0
   -4.3515    4.8295   13.3462 C   0  0  0  0  0  0  0  0  0  0  0  0
   -5.2041    5.6718   13.1188 O   0  0  0  0  0  0  0  0  0  0  0  0
   -3.0376    4.9738   12.9150 N   0  0  0  0  0  0  0  0  0  0  0  0
   -2.5838    6.2543   12.3808 C   0  0  0  0  0  0  0  0  0  0  0  0
   -6.1226    0.2350   16.9527 S   0  0  0  0  0  0  0  0  0  0  0  0
   -5.7300   -1.2061   16.2144 N   0  0  0  0  0  0  0  0  0  0  0  0
   -7.5646    0.2501   17.0131 O   0  0  0  0  0  0  0  0  0  0  0  0
   -5.3066    0.3373   18.1410 O   0  0  0  0  0  0  0  0  0  0  0  0
   -1.8418    7.1051   13.3897 C   0  0  0  0  0  0  0  0  0  0  0  0
   -2.0971    7.0360   14.7709 C   0  0  0  0  0  0  0  0  0  0  0  0
   -1.4446    7.9006   15.6469 C   0  0  0  0  0  0  0  0  0  0  0  0
   -0.5334    8.8472   15.1850 C   0  0  0  0  0  0  0  0  0  0  0  0
   -0.2874    8.9472   13.8187 C   0  0  0  0  0  0  0  0  0  0  0  0
   -0.9445    8.0835   12.9407 C   0  0  0  0  0  0  0  0  0  0  0  0
   -0.7029    8.2068   11.6286 F   0  0  0  0  0  0  0  0  0  0  0  0
   -1.6898    7.8150   16.9561 F   0  0  0  0  0  0  0  0  0  0  0  0
   -2.7655    2.6840   14.3270 H   0  0  0  0  0  0  0  0  0  0  0  0
   -3.5212    0.8478   15.7794 H   0  0  0  0  0  0  0  0  0  0  0  0
   -7.5249    2.4563   15.7552 H   0  0  0  0  0  0  0  0  0  0  0  0
   -6.7747    4.2974   14.3158 H   0  0  0  0  0  0  0  0  0  0  0  0
   -2.3785    4.2169   12.9492 H   0  0  0  0  0  0  0  0  0  0  0  0
   -3.4335    6.8333   12.0051 H   0  0  0  0  0  0  0  0  0  0  0  0
   -1.9287    6.0241   11.5381 H   0  0  0  0  0  0  0  0  0  0  0  0
   -5.8274   -2.0308   16.8026 H   0  0  0  0  0  0  0  0  0  0  0  0
   -5.1708   -1.2395   15.3711 H   0  0  0  0  0  0  0  0  0  0  0  0
   -2.8192    6.3367   15.1813 H   0  0  0  0  0  0  0  0  0  0  0  0
   -0.0532    9.5203   15.8940 H   0  0  0  0  0  0  0  0  0  0  0  0
    0.4037    9.6840   13.4211 H   0  0  0  0  0  0  0  0  0  0  0  0
  1  6  2  0  0  0  0
  1  2  1  0  0  0  0
  1 23  1  0  0  0  0
  2  3  2  0  0  0  0
  2 24  1  0  0  0  0
  3 11  1  0  0  0  0
  3  4  1  0  0  0  0
  4  5  2  0  0  0  0
  4 25  1  0  0  0  0
  5  6  1  0  0  0  0
  5 26  1  0  0  0  0
  6  7  1  0  0  0  0
  7  9  1  0  0  0  0
  7  8  2  0  0  0  0
  9 10  1  0  0  0  0
  9 27  1  0  0  0  0
 10 15  1  0  0  0  0
 10 28  1  0  0  0  0
 10 29  1  0  0  0  0
 11 14  2  0  0  0  0
 11 13  2  0  0  0  0
 11 12  1  0  0  0  0
 12 30  1  0  0  0  0
 12 31  1  0  0  0  0
 15 20  2  0  0  0  0
 15 16  1  0  0  0  0
 16 17  2  0  0  0  0
 16 32  1  0  0  0  0
 17 18  1  0  0  0  0
 17 22  1  0  0  0  0
 18 19  2  0  0  0  0
 18 33  1  0  0  0  0
 19 20  1  0  0  0  0
 19 34  1  0  0  0  0
 20 21  1  0  0  0  0
M  END
$$$$
