IOE
 OpenBabel04041915043D

 34 35  0  0  0  0  0  0  0  0999 V2000
   -3.8244    1.5923   14.7401 C   0  0  0  0  0  0  0  0  0  0  0  0
   -4.1811    0.4426   15.4653 C   0  0  0  0  0  0  0  0  0  0  0  0
   -5.5182    0.2458   15.8461 C   0  0  0  0  0  0  0  0  0  0  0  0
   -6.4780    1.1886   15.5154 C   0  0  0  0  0  0  0  0  0  0  0  0
   -6.1216    2.3367   14.7942 C   0  0  0  0  0  0  0  0  0  0  0  0
   -4.7921    2.5424   14.4069 C   0  0  0  0  0  0  0  0  0  0  0  0
   -4.4876    3.7921   13.6174 C   0  0  0  0  0  0  0  0  0  0  0  0
   -5.3917    4.5152   13.2089 O   0  0  0  0  0  0  0  0  0  0  0  0
   -3.1533    3.9888   13.2444 N   0  0  0  0  0  0  0  0  0  0  0  0
   -2.3088    4.9025   14.0252 C   0  0  0  0  0  0  0  0  0  0  0  0
   -5.9621   -1.1371   16.8875 S   0  0  0  0  0  0  0  0  0  0  0  0
   -5.4658   -2.5108   16.0853 N   0  0  0  0  0  0  0  0  0  0  0  0
   -7.4017   -1.2110   16.9373 O   0  0  0  0  0  0  0  0  0  0  0  0
   -5.1701   -1.0410   18.0887 O   0  0  0  0  0  0  0  0  0  0  0  0
   -2.6229    6.3767   14.1525 C   0  0  0  0  0  0  0  0  0  0  0  0
   -3.4408    7.1314   13.3047 C   0  0  0  0  0  0  0  0  0  0  0  0
   -3.6527    8.4954   13.5229 C   0  0  0  0  0  0  0  0  0  0  0  0
   -2.9888    9.1400   14.5673 C   0  0  0  0  0  0  0  0  0  0  0  0
   -2.1450    8.4440   15.3949 C   0  0  0  0  0  0  0  0  0  0  0  0
   -1.9625    7.0842   15.1673 C   0  0  0  0  0  0  0  0  0  0  0  0
   -1.1034    6.4247   15.9656 F   0  0  0  0  0  0  0  0  0  0  0  0
   -3.1935   10.4465   14.7642 F   0  0  0  0  0  0  0  0  0  0  0  0
   -4.0022    6.5742   12.2282 F   0  0  0  0  0  0  0  0  0  0  0  0
   -2.7885    1.7323   14.4387 H   0  0  0  0  0  0  0  0  0  0  0  0
   -3.4046   -0.2703   15.7538 H   0  0  0  0  0  0  0  0  0  0  0  0
   -7.5177    1.0593   15.8345 H   0  0  0  0  0  0  0  0  0  0  0  0
   -6.8949    3.0655   14.5468 H   0  0  0  0  0  0  0  0  0  0  0  0
   -3.1163    4.2274   12.2601 H   0  0  0  0  0  0  0  0  0  0  0  0
   -1.3091    4.8076   13.5733 H   0  0  0  0  0  0  0  0  0  0  0  0
   -2.2661    4.4665   15.0410 H   0  0  0  0  0  0  0  0  0  0  0  0
   -5.5537   -3.3616   16.6058 H   0  0  0  0  0  0  0  0  0  0  0  0
   -4.9330   -2.4530   15.2202 H   0  0  0  0  0  0  0  0  0  0  0  0
   -4.3138    9.0546   12.8710 H   0  0  0  0  0  0  0  0  0  0  0  0
   -1.6040    8.9321   16.1918 H   0  0  0  0  0  0  0  0  0  0  0  0
  1  6  2  0  0  0  0
  1  2  1  0  0  0  0
  1 24  1  0  0  0  0
  2  3  2  0  0  0  0
  2 25  1  0  0  0  0
  3 11  1  0  0  0  0
  3  4  1  0  0  0  0
  4  5  2  0  0  0  0
  4 26  1  0  0  0  0
  5  6  1  0  0  0  0
  5 27  1  0  0  0  0
  6  7  1  0  0  0  0
  7  9  1  0  0  0  0
  7  8  2  0  0  0  0
  9 10  1  0  0  0  0
  9 28  1  0  0  0  0
 10 15  1  0  0  0  0
 10 29  1  0  0  0  0
 10 30  1  0  0  0  0
 11 14  2  0  0  0  0
 11 13  2  0  0  0  0
 11 12  1  0  0  0  0
 12 31  1  0  0  0  0
 12 32  1  0  0  0  0
 15 20  2  0  0  0  0
 15 16  1  0  0  0  0
 16 17  2  0  0  0  0
 16 23  1  0  0  0  0
 17 18  1  0  0  0  0
 17 33  1  0  0  0  0
 18 19  2  0  0  0  0
 18 22  1  0  0  0  0
 19 20  1  0  0  0  0
 19 34  1  0  0  0  0
 20 21  1  0  0  0  0
M  END
$$$$
