IPH
 OpenBabel04041915333D

 13 13  0  0  0  0  0  0  0  0999 V2000
   27.4857    6.6299    3.5082 C   0  0  0  0  0  0  0  0  0  0  0  0
   26.7453    5.4777    3.2797 C   0  0  0  0  0  0  0  0  0  0  0  0
   25.9993    4.9113    4.3132 C   0  0  0  0  0  0  0  0  0  0  0  0
   26.0199    5.4948    5.5806 C   0  0  0  0  0  0  0  0  0  0  0  0
   26.7838    6.6373    5.8024 C   0  0  0  0  0  0  0  0  0  0  0  0
   27.5133    7.2232    4.7613 C   0  0  0  0  0  0  0  0  0  0  0  0
   28.1844    7.1698    2.4693 O   0  0  0  0  0  0  0  0  0  0  0  0
   26.7368    5.0265    2.2902 H   0  0  0  0  0  0  0  0  0  0  0  0
   25.4062    4.0211    4.1313 H   0  0  0  0  0  0  0  0  0  0  0  0
   25.4472    5.0488    6.3936 H   0  0  0  0  0  0  0  0  0  0  0  0
   26.8186    7.0788    6.7992 H   0  0  0  0  0  0  0  0  0  0  0  0
   28.1102    8.1099    4.9525 H   0  0  0  0  0  0  0  0  0  0  0  0
   27.9171    8.1024    2.4106 H   0  0  0  0  0  0  0  0  0  0  0  0
  1  7  1  0  0  0  0
  1  6  2  0  0  0  0
  1  2  1  0  0  0  0
  2  3  2  0  0  0  0
  2  8  1  0  0  0  0
  3  4  1  0  0  0  0
  3  9  1  0  0  0  0
  4  5  2  0  0  0  0
  4 10  1  0  0  0  0
  5  6  1  0  0  0  0
  5 11  1  0  0  0  0
  6 12  1  0  0  0  0
  7 13  1  0  0  0  0
M  END
$$$$
