IPT
 OpenBabel04041916283D

 33 33  0  0  1  0  0  0  0  0999 V2000
  -13.4636  -28.7370  -27.5113 C   0  0  1  0  0  0  0  0  0  0  0  0
  -12.1975  -28.5109  -26.6771 C   0  0  2  0  0  0  0  0  0  0  0  0
  -12.3302  -27.3487  -25.8462 O   0  0  0  0  0  0  0  0  0  0  0  0
  -10.9547  -28.3473  -27.5762 C   0  0  1  0  0  0  0  0  0  0  0  0
   -9.7978  -28.3046  -26.7077 O   0  0  0  0  0  0  0  0  0  0  0  0
  -10.8719  -29.4926  -28.5744 C   0  0  1  0  0  0  0  0  0  0  0  0
  -10.5877  -30.7037  -27.8402 O   0  0  0  0  0  0  0  0  0  0  0  0
  -12.1970  -29.5815  -29.3223 C   0  0  2  0  0  0  0  0  0  0  0  0
  -13.2706  -29.8060  -28.4067 O   0  0  0  0  0  0  0  0  0  0  0  0
  -12.2824  -30.7789  -30.2532 C   0  0  0  0  0  0  0  0  0  0  0  0
  -11.3301  -30.6812  -31.3031 O   0  0  0  0  0  0  0  0  0  0  0  0
  -14.8075  -29.2372  -26.3653 S   0  0  0  0  0  0  0  0  0  0  0  0
  -16.2695  -28.7441  -27.3333 C   0  0  0  0  0  0  0  0  0  0  0  0
  -17.4452  -28.7736  -26.3597 C   0  0  0  0  0  0  0  0  0  0  0  0
  -16.5433  -29.6747  -28.5069 C   0  0  0  0  0  0  0  0  0  0  0  0
  -13.7337  -27.8313  -28.0621 H   0  0  0  0  0  0  0  0  0  0  0  0
  -12.0234  -29.3726  -26.0158 H   0  0  0  0  0  0  0  0  0  0  0  0
  -11.4909  -27.2670  -25.3498 H   0  0  0  0  0  0  0  0  0  0  0  0
  -10.9892  -27.3821  -28.0857 H   0  0  0  0  0  0  0  0  0  0  0  0
   -9.6851  -29.2095  -26.3512 H   0  0  0  0  0  0  0  0  0  0  0  0
  -10.0191  -29.3337  -29.2567 H   0  0  0  0  0  0  0  0  0  0  0  0
  -11.4079  -30.9671  -27.3880 H   0  0  0  0  0  0  0  0  0  0  0  0
  -12.4022  -28.6725  -29.8973 H   0  0  0  0  0  0  0  0  0  0  0  0
  -13.2918  -30.8425  -30.6848 H   0  0  0  0  0  0  0  0  0  0  0  0
  -12.1366  -31.7008  -29.6876 H   0  0  0  0  0  0  0  0  0  0  0  0
  -11.4871  -29.8385  -31.7520 H   0  0  0  0  0  0  0  0  0  0  0  0
  -16.1319  -27.7175  -27.6912 H   0  0  0  0  0  0  0  0  0  0  0  0
  -18.3659  -28.4706  -26.8648 H   0  0  0  0  0  0  0  0  0  0  0  0
  -17.2840  -28.0864  -25.5224 H   0  0  0  0  0  0  0  0  0  0  0  0
  -17.6051  -29.7806  -25.9539 H   0  0  0  0  0  0  0  0  0  0  0  0
  -17.4570  -29.3660  -29.0282 H   0  0  0  0  0  0  0  0  0  0  0  0
  -16.6896  -30.7102  -28.1784 H   0  0  0  0  0  0  0  0  0  0  0  0
  -15.7326  -29.6525  -29.2422 H   0  0  0  0  0  0  0  0  0  0  0  0
  1  2  1  0  0  0  0
  1  9  1  0  0  0  0
  1 12  1  0  0  0  0
  1 16  1  6  0  0  0
  2  3  1  0  0  0  0
  2  4  1  0  0  0  0
  2 17  1  1  0  0  0
  3 18  1  0  0  0  0
  4  5  1  0  0  0  0
  4  6  1  0  0  0  0
  4 19  1  6  0  0  0
  5 20  1  0  0  0  0
  6  7  1  0  0  0  0
  6  8  1  0  0  0  0
  6 21  1  6  0  0  0
  7 22  1  0  0  0  0
  8  9  1  0  0  0  0
  8 10  1  0  0  0  0
  8 23  1  6  0  0  0
 10 11  1  0  0  0  0
 10 24  1  0  0  0  0
 10 25  1  0  0  0  0
 11 26  1  0  0  0  0
 12 13  1  0  0  0  0
 13 14  1  0  0  0  0
 13 15  1  0  0  0  0
 13 27  1  0  0  0  0
 14 28  1  0  0  0  0
 14 29  1  0  0  0  0
 14 30  1  0  0  0  0
 15 31  1  0  0  0  0
 15 32  1  0  0  0  0
 15 33  1  0  0  0  0
M  END
$$$$
