IQA
 OpenBabel04041916133D

 33 36  0  0  0  0  0  0  0  0999 V2000
   23.8770    7.2741   14.1792 O   0  0  0  0  0  0  0  0  0  0  0  0
   24.5176    6.4512   14.8724 C   0  0  0  0  0  0  0  0  0  0  0  0
   25.3660    5.6050   14.4705 O   0  0  0  0  0  0  0  0  0  0  0  0
   24.2566    6.4480   16.4268 C   0  0  0  0  0  0  0  0  0  0  0  0
   23.2494    7.3095   17.2970 C   0  0  0  0  0  0  0  0  0  0  0  0
   22.9569    6.9608   18.6145 C   0  0  0  0  0  0  0  0  0  0  0  0
   23.5134    5.8503   19.2335 N   0  3  0  0  0  0  0  0  0  0  0  0
   23.1854    5.5134   20.5889 C   0  0  0  0  0  0  0  0  0  0  0  0
   23.6932    4.5462   21.0716 O   0  0  0  0  0  0  0  0  0  0  0  0
   22.2088    6.4288   21.3074 C   0  0  0  0  0  0  0  0  0  0  0  0
   21.8801    6.0956   22.6625 C   0  0  0  0  0  0  0  0  0  0  0  0
   20.9803    6.8955   23.3983 C   0  0  0  0  0  0  0  0  0  0  0  0
   20.4075    8.0261   22.7907 C   0  0  0  0  0  0  0  0  0  0  0  0
   20.7393    8.3551   21.4330 C   0  0  0  0  0  0  0  0  0  0  0  0
   21.6467    7.5637   20.6636 C   0  0  0  0  0  0  0  0  0  0  0  0
   22.0516    7.8281   19.2465 N   0  3  0  0  0  0  0  0  0  0  0  0
   21.7219    8.8302   18.2868 C   0  0  0  0  0  0  0  0  0  0  0  0
   22.4578    8.5309   17.0728 C   0  0  0  0  0  0  0  0  0  0  0  0
   22.2891    9.4155   15.9505 C   0  0  0  0  0  0  0  0  0  0  0  0
   21.4285   10.5399   16.0299 C   0  0  0  0  0  0  0  0  0  0  0  0
   20.7243   10.8109   17.2092 C   0  0  0  0  0  0  0  0  0  0  0  0
   20.8590    9.9688   18.3432 C   0  0  0  0  0  0  0  0  0  0  0  0
   25.2475    6.6137   16.9012 H   0  0  0  0  0  0  0  0  0  0  0  0
   23.9910    5.3913   16.6668 H   0  0  0  0  0  0  0  0  0  0  0  0
   24.1654    5.2540   18.7262 H   0  0  0  0  0  0  0  0  0  0  0  0
   22.3205    5.2152   23.1521 H   0  0  0  0  0  0  0  0  0  0  0  0
   20.7276    6.6393   24.4367 H   0  0  0  0  0  0  0  0  0  0  0  0
   19.7058    8.6452   23.3778 H   0  0  0  0  0  0  0  0  0  0  0  0
   20.2586    9.2422   21.0234 H   0  0  0  0  0  0  0  0  0  0  0  0
   22.8346    9.2100   15.0170 H   0  0  0  0  0  0  0  0  0  0  0  0
   21.3115   11.2031   15.1625 H   0  0  0  0  0  0  0  0  0  0  0  0
   20.0628   11.6858   17.2503 H   0  0  0  0  0  0  0  0  0  0  0  0
   20.2924   10.2119   19.2457 H   0  0  0  0  0  0  0  0  0  0  0  0
  1  2  2  0  0  0  0
  2  3  1  0  0  0  0
  2  4  1  0  0  0  0
  4  5  1  0  0  0  0
  4 23  1  0  0  0  0
  4 24  1  0  0  0  0
  5  6  1  0  0  0  0
  5 18  2  0  0  0  0
  6  7  2  0  0  0  0
  6 16  1  0  0  0  0
  7  8  1  0  0  0  0
  7 25  1  0  0  0  0
  8  9  2  0  0  0  0
  8 10  1  0  0  0  0
 10 11  2  0  0  0  0
 10 15  1  0  0  0  0
 11 12  1  0  0  0  0
 11 26  1  0  0  0  0
 12 13  2  0  0  0  0
 12 27  1  0  0  0  0
 13 14  1  0  0  0  0
 13 28  1  0  0  0  0
 14 15  2  0  0  0  0
 14 29  1  0  0  0  0
 15 16  1  0  0  0  0
 16 17  2  0  0  0  0
 17 18  1  0  0  0  0
 17 22  1  0  0  0  0
 18 19  1  0  0  0  0
 19 20  2  0  0  0  0
 19 30  1  0  0  0  0
 20 21  1  0  0  0  0
 20 31  1  0  0  0  0
 21 22  2  0  0  0  0
 21 32  1  0  0  0  0
 22 33  1  0  0  0  0
M  CHG  2   7   1  16   1
M  END
$$$$
