IQB
 OpenBabel04041917483D

 48 50  0  0  0  0  0  0  0  0999 V2000
    6.8851   10.2680    2.8196 C   0  0  0  0  0  0  0  0  0  0  0  0
    7.0167   10.2901    1.4270 C   0  0  0  0  0  0  0  0  0  0  0  0
    5.8722   10.2354    0.6241 C   0  0  0  0  0  0  0  0  0  0  0  0
    4.6118   10.1413    1.2030 C   0  0  0  0  0  0  0  0  0  0  0  0
    4.4758   10.0961    2.5937 C   0  0  0  0  0  0  0  0  0  0  0  0
    3.2437   10.0013    3.2101 C   0  0  0  0  0  0  0  0  0  0  0  0
    3.0846    9.9454    4.5595 N   0  0  0  0  0  0  0  0  0  0  0  0
    4.1898   10.0017    5.3304 C   0  0  0  0  0  0  0  0  0  0  0  0
    5.4524   10.0938    4.8085 C   0  0  0  0  0  0  0  0  0  0  0  0
    5.6372   10.1508    3.4246 C   0  0  0  0  0  0  0  0  0  0  0  0
    8.3424   10.3792    3.7967 S   0  0  0  0  0  0  0  0  0  0  0  0
    8.1669   11.2411    4.9090 O   0  0  0  0  0  0  0  0  0  0  0  0
    9.4687   10.6083    2.8981 O   0  0  0  0  0  0  0  0  0  0  0  0
    8.4602    8.8124    4.4153 N   0  0  0  0  0  0  0  0  0  0  0  0
    8.8685    7.6976    3.5830 C   0  0  0  0  0  0  0  0  0  0  0  0
   10.1650    8.0257    2.8712 C   0  0  0  0  0  0  0  0  0  0  0  0
   11.2826    7.1895    3.3608 N   0  3  0  0  0  0  0  0  0  0  0  0
   12.4495    8.0132    3.7906 C   0  0  0  0  0  0  0  0  0  0  0  0
   12.8614    8.9589    2.7206 C   0  0  0  0  0  0  0  0  0  0  0  0
   12.8508   10.2894    2.9200 C   0  0  0  0  0  0  0  0  0  0  0  0
   13.2293   11.2489    1.8706 C   0  0  0  0  0  0  0  0  0  0  0  0
   14.0659   10.8878    0.8012 C   0  0  0  0  0  0  0  0  0  0  0  0
   14.4243   11.8154   -0.1799 C   0  0  0  0  0  0  0  0  0  0  0  0
   13.9522   13.1228   -0.0928 C   0  0  0  0  0  0  0  0  0  0  0  0
   14.4289   14.3959   -1.4031 Br  0  0  0  0  0  0  0  0  0  0  0  0
   13.1262   13.5061    0.9614 C   0  0  0  0  0  0  0  0  0  0  0  0
   12.7726   12.5713    1.9391 C   0  0  0  0  0  0  0  0  0  0  0  0
    7.9924   10.3735    0.9578 H   0  0  0  0  0  0  0  0  0  0  0  0
    5.9685   10.2733   -0.4561 H   0  0  0  0  0  0  0  0  0  0  0  0
    3.7196   10.1046    0.5725 H   0  0  0  0  0  0  0  0  0  0  0  0
    2.3321    9.9618    2.5992 H   0  0  0  0  0  0  0  0  0  0  0  0
    4.0385    9.9621    6.4114 H   0  0  0  0  0  0  0  0  0  0  0  0
    6.2985   10.1331    5.4866 H   0  0  0  0  0  0  0  0  0  0  0  0
    8.1179    8.6669    5.3692 H   0  0  0  0  0  0  0  0  0  0  0  0
    8.0980    7.4625    2.8479 H   0  0  0  0  0  0  0  0  0  0  0  0
    9.0049    6.8324    4.2378 H   0  0  0  0  0  0  0  0  0  0  0  0
   10.5054    9.0185    3.0958 H   0  0  0  0  0  0  0  0  0  0  0  0
   10.0800    7.9084    1.7932 H   0  0  0  0  0  0  0  0  0  0  0  0
   10.9692    6.6139    4.1453 H   0  0  0  0  0  0  0  0  0  0  0  0
   13.2619    7.3256    4.0310 H   0  0  0  0  0  0  0  0  0  0  0  0
   12.1407    8.5425    4.6999 H   0  0  0  0  0  0  0  0  0  0  0  0
   13.1300    8.5586    1.7518 H   0  0  0  0  0  0  0  0  0  0  0  0
   12.5346   10.6795    3.8867 H   0  0  0  0  0  0  0  0  0  0  0  0
   14.4488    9.8750    0.7228 H   0  0  0  0  0  0  0  0  0  0  0  0
   15.0701   11.5179   -1.0041 H   0  0  0  0  0  0  0  0  0  0  0  0
   12.7602   14.5291    1.0243 H   0  0  0  0  0  0  0  0  0  0  0  0
   12.1242   12.8829    2.7533 H   0  0  0  0  0  0  0  0  0  0  0  0
   11.5695    6.5579    2.6102 H   0  0  0  0  0  0  0  0  0  0  0  0
  1 11  1  0  0  0  0
  1 10  2  0  0  0  0
  1  2  1  0  0  0  0
  2  3  2  0  0  0  0
  2 28  1  0  0  0  0
  3  4  1  0  0  0  0
  3 29  1  0  0  0  0
  4  5  2  0  0  0  0
  4 30  1  0  0  0  0
  5 10  1  0  0  0  0
  5  6  1  0  0  0  0
  6  7  2  0  0  0  0
  6 31  1  0  0  0  0
  7  8  1  0  0  0  0
  8  9  2  0  0  0  0
  8 32  1  0  0  0  0
  9 10  1  0  0  0  0
  9 33  1  0  0  0  0
 11 14  1  0  0  0  0
 11 13  2  0  0  0  0
 11 12  2  0  0  0  0
 14 15  1  0  0  0  0
 14 34  1  0  0  0  0
 15 16  1  0  0  0  0
 15 35  1  0  0  0  0
 15 36  1  0  0  0  0
 16 17  1  0  0  0  0
 16 37  1  0  0  0  0
 16 38  1  0  0  0  0
 17 18  1  0  0  0  0
 17 39  1  0  0  0  0
 17 48  1  0  0  0  0
 18 19  1  0  0  0  0
 18 40  1  0  0  0  0
 18 41  1  0  0  0  0
 19 20  2  0  0  0  0
 19 42  1  0  0  0  0
 20 21  1  0  0  0  0
 20 43  1  0  0  0  0
 21 27  2  0  0  0  0
 21 22  1  0  0  0  0
 22 23  2  0  0  0  0
 22 44  1  0  0  0  0
 23 24  1  0  0  0  0
 23 45  1  0  0  0  0
 24 26  2  0  0  0  0
 24 25  1  0  0  0  0
 26 27  1  0  0  0  0
 26 46  1  0  0  0  0
 27 47  1  0  0  0  0
M  CHG  1  17   1
M  END
$$$$
