IQP
 OpenBabel04041917483D

 38 40  0  0  1  0  0  0  0  0999 V2000
    6.8594    9.9040    3.2588 C   0  0  0  0  0  0  0  0  0  0  0  0
    7.1946    9.9616    1.8918 C   0  0  0  0  0  0  0  0  0  0  0  0
    6.1909   10.0045    0.9338 C   0  0  0  0  0  0  0  0  0  0  0  0
    4.8538    9.9907    1.3391 C   0  0  0  0  0  0  0  0  0  0  0  0
    4.5144    9.9334    2.7045 C   0  0  0  0  0  0  0  0  0  0  0  0
    3.1846    9.9293    3.1254 C   0  0  0  0  0  0  0  0  0  0  0  0
    2.7802    9.8759    4.4176 N   0  0  0  0  0  0  0  0  0  0  0  0
    3.7504    9.8454    5.3457 C   0  0  0  0  0  0  0  0  0  0  0  0
    5.0993    9.8611    5.0428 C   0  0  0  0  0  0  0  0  0  0  0  0
    5.5195    9.8878    3.6932 C   0  0  0  0  0  0  0  0  0  0  0  0
    8.1877    9.9237    4.4419 S   0  0  0  0  0  0  0  0  0  0  0  0
    7.8830    9.0639    5.5568 O   0  0  0  0  0  0  0  0  0  0  0  0
    8.5729   11.3072    4.5963 O   0  0  0  0  0  0  0  0  0  0  0  0
    9.4568    9.1190    3.6224 N   0  0  0  0  0  0  0  0  0  0  0  0
   10.8189    9.7257    3.8172 C   0  0  1  0  0  0  0  0  0  0  0  0
   11.2721    9.6791    5.2767 C   0  0  0  0  0  0  0  0  0  0  0  0
   11.8418    9.0009    2.9132 C   0  0  0  0  0  0  0  0  0  0  0  0
   11.7718    7.5073    3.1269 N   0  3  0  0  0  0  0  0  0  0  0  0
   10.4002    6.9510    2.8526 C   0  0  0  0  0  0  0  0  0  0  0  0
    9.3869    7.6296    3.7730 C   0  0  0  0  0  0  0  0  0  0  0  0
    8.2284   10.0111    1.5626 H   0  0  0  0  0  0  0  0  0  0  0  0
    6.4339   10.0712   -0.1262 H   0  0  0  0  0  0  0  0  0  0  0  0
    4.0756   10.0445    0.5779 H   0  0  0  0  0  0  0  0  0  0  0  0
    2.3613    9.9776    2.4127 H   0  0  0  0  0  0  0  0  0  0  0  0
    3.4194    9.8072    6.3816 H   0  0  0  0  0  0  0  0  0  0  0  0
    5.7856    9.8548    5.8826 H   0  0  0  0  0  0  0  0  0  0  0  0
   10.7800   10.7702    3.4815 H   0  0  0  0  0  0  0  0  0  0  0  0
   12.2486   10.1621    5.3801 H   0  0  0  0  0  0  0  0  0  0  0  0
   11.3660    8.6528    5.6411 H   0  0  0  0  0  0  0  0  0  0  0  0
   10.5777   10.1953    5.9437 H   0  0  0  0  0  0  0  0  0  0  0  0
   12.8681    9.3066    3.1418 H   0  0  0  0  0  0  0  0  0  0  0  0
   11.6402    9.1762    1.8514 H   0  0  0  0  0  0  0  0  0  0  0  0
   12.4685    7.0347    2.5353 H   0  0  0  0  0  0  0  0  0  0  0  0
   10.4460    5.8737    3.0421 H   0  0  0  0  0  0  0  0  0  0  0  0
   10.1795    7.1343    1.7970 H   0  0  0  0  0  0  0  0  0  0  0  0
    8.3823    7.2684    3.5321 H   0  0  0  0  0  0  0  0  0  0  0  0
    9.6105    7.3549    4.8108 H   0  0  0  0  0  0  0  0  0  0  0  0
   12.0291    7.2913    4.0996 H   0  0  0  0  0  0  0  0  0  0  0  0
  1 11  1  0  0  0  0
  1 10  2  0  0  0  0
  1  2  1  0  0  0  0
  2  3  2  0  0  0  0
  2 21  1  0  0  0  0
  3  4  1  0  0  0  0
  3 22  1  0  0  0  0
  4  5  2  0  0  0  0
  4 23  1  0  0  0  0
  5 10  1  0  0  0  0
  5  6  1  0  0  0  0
  6  7  2  0  0  0  0
  6 24  1  0  0  0  0
  7  8  1  0  0  0  0
  8  9  2  0  0  0  0
  8 25  1  0  0  0  0
  9 10  1  0  0  0  0
  9 26  1  0  0  0  0
 11 14  1  0  0  0  0
 11 13  2  0  0  0  0
 11 12  2  0  0  0  0
 14 20  1  0  0  0  0
 14 15  1  0  0  0  0
 15 17  1  0  0  0  0
 15 16  1  0  0  0  0
 15 27  1  6  0  0  0
 16 28  1  0  0  0  0
 16 29  1  0  0  0  0
 16 30  1  0  0  0  0
 17 18  1  0  0  0  0
 17 31  1  0  0  0  0
 17 32  1  0  0  0  0
 18 19  1  0  0  0  0
 18 33  1  0  0  0  0
 18 38  1  0  0  0  0
 19 20  1  0  0  0  0
 19 34  1  0  0  0  0
 19 35  1  0  0  0  0
 20 36  1  0  0  0  0
 20 37  1  0  0  0  0
M  CHG  1  18   1
M  END
$$$$
