ISA
 OpenBabel04041913573D

 21 21  0  0  1  0  0  0  0  0999 V2000
    8.6329  -49.7693   37.4416 C   0  0  0  0  0  0  0  0  0  0  0  0
    8.9487  -49.0377   36.3152 C   0  0  0  0  0  0  0  0  0  0  0  0
    9.8840  -49.5243   35.4307 C   0  0  0  0  0  0  0  0  0  0  0  0
    9.2573  -50.9762   37.7288 C   0  0  0  0  0  0  0  0  0  0  0  0
   10.1866  -51.4705   36.8368 C   0  0  0  0  0  0  0  0  0  0  0  0
   10.4831  -50.7547   35.6789 C   0  0  0  0  0  0  0  0  0  0  0  0
   11.3844  -51.3167   34.6356 C   0  0  0  0  0  0  0  0  0  0  0  0
   10.6204  -52.2462   33.7134 C   0  0  2  0  0  0  0  0  0  0  0  0
   11.8175  -52.9947   32.5326 S   0  0  0  0  0  0  0  0  0  0  0  0
    9.5912  -51.5345   32.8233 C   0  0  0  0  0  0  0  0  0  0  0  0
    9.9482  -50.4271   32.3146 O   0  0  0  0  0  0  0  0  0  0  0  0
    8.4704  -52.1327   32.7204 O   0  0  0  0  0  0  0  0  0  0  0  0
    7.8734  -49.3787   38.1238 H   0  0  0  0  0  0  0  0  0  0  0  0
    8.4737  -48.0911   36.1020 H   0  0  0  0  0  0  0  0  0  0  0  0
   10.1190  -48.9595   34.5321 H   0  0  0  0  0  0  0  0  0  0  0  0
    8.9993  -51.5096   38.6288 H   0  0  0  0  0  0  0  0  0  0  0  0
   10.6670  -52.4237   37.0281 H   0  0  0  0  0  0  0  0  0  0  0  0
   12.1861  -51.8434   35.1627 H   0  0  0  0  0  0  0  0  0  0  0  0
   11.8242  -50.4755   34.0862 H   0  0  0  0  0  0  0  0  0  0  0  0
   10.1352  -53.0640   34.2705 H   0  0  0  0  0  0  0  0  0  0  0  0
   12.6409  -53.5580   33.4223 H   0  0  0  0  0  0  0  0  0  0  0  0
  1  4  2  0  0  0  0
  1  2  1  0  0  0  0
  1 13  1  0  0  0  0
  2  3  2  0  0  0  0
  2 14  1  0  0  0  0
  3  6  1  0  0  0  0
  3 15  1  0  0  0  0
  4  5  1  0  0  0  0
  4 16  1  0  0  0  0
  5  6  2  0  0  0  0
  5 17  1  0  0  0  0
  6  7  1  0  0  0  0
  7  8  1  0  0  0  0
  7 18  1  0  0  0  0
  7 19  1  0  0  0  0
  8 10  1  0  0  0  0
  8  9  1  0  0  0  0
  8 20  1  1  0  0  0
  9 21  1  0  0  0  0
 10 12  2  0  0  0  0
 10 11  1  0  0  0  0
M  END
$$$$
