ISC
 OpenBabel04041915523D

 24 24  0  0  1  0  0  0  0  0999 V2000
    5.9897   20.8099   75.2682 C   0  0  0  0  0  0  0  0  0  0  0  0
    5.9230   21.5537   73.9586 C   0  0  2  0  0  0  0  0  0  0  0  0
    4.6021   22.0997   73.8227 O   0  0  0  0  0  0  0  0  0  0  0  0
    6.3392   20.7079   72.7167 C   0  0  2  0  0  0  0  0  0  0  0  0
    6.1226   19.2193   72.9077 C   0  0  0  0  0  0  0  0  0  0  0  0
    6.0442   18.6599   74.1231 C   0  0  0  0  0  0  0  0  0  0  0  0
    6.0924   19.4690   75.3194 C   0  0  0  0  0  0  0  0  0  0  0  0
    6.0245   21.6792   76.5286 C   0  0  0  0  0  0  0  0  0  0  0  0
    5.7586   22.9131   76.3384 O   0  0  0  0  0  0  0  0  0  0  0  0
    6.2615   21.0928   77.6197 O   0  0  0  0  0  0  0  0  0  0  0  0
    7.7093   20.2690   70.0917 C   0  0  0  0  0  0  0  0  0  0  0  0
    7.9982   19.2175   69.4362 O   0  0  0  0  0  0  0  0  0  0  0  0
    6.9532   21.2228   69.7545 O   0  0  0  0  0  0  0  0  0  0  0  0
    8.4062   20.3962   71.4815 C   0  0  0  0  0  0  0  0  0  0  0  0
    7.7553   20.9655   72.5604 O   0  0  0  0  0  0  0  0  0  0  0  0
    9.6660   19.9752   71.6567 C   0  0  0  0  0  0  0  0  0  0  0  0
    6.6064   22.4113   73.9966 H   0  0  0  0  0  0  0  0  0  0  0  0
    4.5996   22.7749   74.5362 H   0  0  0  0  0  0  0  0  0  0  0  0
    5.7668   21.0665   71.8548 H   0  0  0  0  0  0  0  0  0  0  0  0
    6.0854   18.6128   72.0090 H   0  0  0  0  0  0  0  0  0  0  0  0
    5.9731   17.5831   74.2305 H   0  0  0  0  0  0  0  0  0  0  0  0
    6.1950   18.9578   76.2737 H   0  0  0  0  0  0  0  0  0  0  0  0
   10.1498   20.0546   72.6214 H   0  0  0  0  0  0  0  0  0  0  0  0
   10.2100   19.5293   70.8299 H   0  0  0  0  0  0  0  0  0  0  0  0
  1  2  1  0  0  0  0
  1  7  2  0  0  0  0
  1  8  1  0  0  0  0
  2  3  1  0  0  0  0
  2  4  1  0  0  0  0
  2 17  1  1  0  0  0
  3 18  1  0  0  0  0
  4  5  1  0  0  0  0
  4 15  1  0  0  0  0
  4 19  1  6  0  0  0
  5  6  2  0  0  0  0
  5 20  1  0  0  0  0
  6  7  1  0  0  0  0
  6 21  1  0  0  0  0
  7 22  1  0  0  0  0
  8  9  2  0  0  0  0
  8 10  1  0  0  0  0
 11 12  2  0  0  0  0
 11 13  1  0  0  0  0
 11 14  1  0  0  0  0
 14 15  1  0  0  0  0
 14 16  2  0  0  0  0
 16 23  1  0  0  0  0
 16 24  1  0  0  0  0
M  END
$$$$
