IWD
 OpenBabel04041915483D

 23 23  0  0  1  0  0  0  0  0999 V2000
   77.7742   26.9195   42.4688 N   0  3  0  0  0  0  0  0  0  0  0  0
   77.9126   25.6787   41.8524 C   0  0  0  0  0  0  0  0  0  0  0  0
   77.9701   24.6186   42.4578 O   0  0  0  0  0  0  0  0  0  0  0  0
   77.8983   25.6927   40.4862 N   0  3  0  0  0  0  0  0  0  0  0  0
   77.7619   26.8004   39.6824 C   0  0  0  0  0  0  0  0  0  0  0  0
   77.7316   26.7017   38.4663 O   0  0  0  0  0  0  0  0  0  0  0  0
   77.6219   28.1032   40.4058 C   0  0  0  0  0  0  0  0  0  0  0  0
   77.3672   29.8410   39.3670 I   0  0  0  0  0  0  0  0  0  0  0  0
   77.6401   28.0807   41.7427 C   0  0  0  0  0  0  0  0  0  0  0  0
   77.7309   26.9575   43.9405 C   0  0  0  0  0  0  0  0  0  0  0  0
   76.3952   26.4218   44.4484 C   0  0  2  0  0  0  0  0  0  0  0  0
   75.3014   27.4371   44.1248 N   0  3  0  0  0  0  0  0  0  0  0  0
   76.4739   26.1364   45.9641 C   0  0  0  0  0  0  0  0  0  0  0  0
   75.5387   26.7459   46.5680 O   0  0  0  0  0  0  0  0  0  0  0  0
   77.3989   25.4024   46.3621 O   0  0  0  0  0  0  0  0  0  0  0  0
   77.9689   24.7969   40.0230 H   0  0  0  0  0  0  0  0  0  0  0  0
   77.5404   28.9996   42.3136 H   0  0  0  0  0  0  0  0  0  0  0  0
   77.8780   27.9927   44.2774 H   0  0  0  0  0  0  0  0  0  0  0  0
   78.5835   26.3826   44.3207 H   0  0  0  0  0  0  0  0  0  0  0  0
   76.0837   25.5034   43.9349 H   0  0  0  0  0  0  0  0  0  0  0  0
   74.4511   27.0682   44.5859 H   0  0  0  0  0  0  0  0  0  0  0  0
   75.4882   28.2844   44.6802 H   0  0  0  0  0  0  0  0  0  0  0  0
   75.1579   27.6191   43.1337 H   0  0  0  0  0  0  0  0  0  0  0  0
  1  2  1  0  0  0  0
  1  9  1  0  0  0  0
  1 10  1  0  0  0  0
  2  3  2  0  0  0  0
  2  4  1  0  0  0  0
  4  5  1  0  0  0  0
  4 16  1  0  0  0  0
  5  6  2  0  0  0  0
  5  7  1  0  0  0  0
  7  8  1  0  0  0  0
  7  9  2  0  0  0  0
  9 17  1  0  0  0  0
 10 11  1  0  0  0  0
 10 18  1  0  0  0  0
 10 19  1  0  0  0  0
 11 12  1  0  0  0  0
 11 13  1  0  0  0  0
 11 20  1  6  0  0  0
 12 21  1  0  0  0  0
 12 22  1  0  0  0  0
 12 23  1  0  0  0  0
 13 14  2  0  0  0  0
 13 15  1  0  0  0  0
M  CHG  3   1   1   4   1  12   1
M  END
$$$$
