IX1
 OpenBabel04041917373D

 49 51  0  0  0  0  0  0  0  0999 V2000
   32.8600   31.7772   18.5814 C   0  0  0  0  0  0  0  0  0  0  0  0
   32.4166   30.9016   19.5933 C   0  0  0  0  0  0  0  0  0  0  0  0
   31.0268   30.6665   19.6584 C   0  0  0  0  0  0  0  0  0  0  0  0
   30.1033   31.2593   18.7634 C   0  0  0  0  0  0  0  0  0  0  0  0
   30.5920   32.1177   17.7749 C   0  0  0  0  0  0  0  0  0  0  0  0
   31.9652   32.3774   17.6767 C   0  0  0  0  0  0  0  0  0  0  0  0
   33.3446   30.2471   20.5577 C   0  0  0  0  0  0  0  0  0  0  0  0
   32.7518   29.5354   21.5747 O   0  0  0  0  0  0  0  0  0  0  0  0
   33.7017   28.9591   22.3983 N   0  0  0  0  0  0  0  0  0  0  0  0
   34.8949   29.3528   21.9183 C   0  0  0  0  0  0  0  0  0  0  0  0
   34.7226   30.1511   20.7295 C   0  0  0  0  0  0  0  0  0  0  0  0
   36.2396   29.0098   22.5399 C   0  0  0  0  0  0  0  0  0  0  0  0
   37.1352   29.9089   22.5210 O   0  0  0  0  0  0  0  0  0  0  0  0
   36.3811   27.8306   23.0156 O   0  0  0  0  0  0  0  0  0  0  0  0
   28.6562   30.9923   18.9567 C   0  0  0  0  0  0  0  0  0  0  0  0
   24.8095   29.9619   21.4127 C   0  0  0  0  0  0  0  0  0  0  0  0
   23.9726   31.0925   21.6084 C   0  0  0  0  0  0  0  0  0  0  0  0
   22.6577   30.9771   22.1074 C   0  0  0  0  0  0  0  0  0  0  0  0
   22.1640   29.7254   22.4254 C   0  0  0  0  0  0  0  0  0  0  0  0
   22.9481   28.5923   22.2715 C   0  0  0  0  0  0  0  0  0  0  0  0
   24.2782   28.6747   21.7467 C   0  0  0  0  0  0  0  0  0  0  0  0
   25.0641   27.3986   21.6469 C   0  0  0  0  0  0  0  0  0  0  0  0
   25.0892   26.5977   22.5843 O   0  0  0  0  0  0  0  0  0  0  0  0
   25.6027   27.1820   20.4113 O   0  0  0  0  0  0  0  0  0  0  0  0
   26.3405   25.9439   20.2441 C   0  0  0  0  0  0  0  0  0  0  0  0
   22.3206   27.4154   22.6240 O   0  0  0  0  0  0  0  0  0  0  0  0
   26.1204   30.0722   20.9297 O   0  0  0  0  0  0  0  0  0  0  0  0
   26.6179   31.3905   20.5752 C   0  0  0  0  0  0  0  0  0  0  0  0
   28.0624   31.4516   20.0813 C   0  0  0  0  0  0  0  0  0  0  0  0
   35.8242   30.7170   19.9119 C   0  0  0  0  0  0  0  0  0  0  0  0
   35.8387   30.2796   18.5487 O   0  0  0  0  0  0  0  0  0  0  0  0
   33.9110   32.0322   18.4767 H   0  0  0  0  0  0  0  0  0  0  0  0
   30.6435   30.0039   20.4358 H   0  0  0  0  0  0  0  0  0  0  0  0
   29.9039   32.6088   17.0800 H   0  0  0  0  0  0  0  0  0  0  0  0
   32.3457   33.0513   16.9006 H   0  0  0  0  0  0  0  0  0  0  0  0
   28.1169   30.4287   18.1959 H   0  0  0  0  0  0  0  0  0  0  0  0
   24.3117   32.1001   21.3763 H   0  0  0  0  0  0  0  0  0  0  0  0
   22.0313   31.8646   22.2402 H   0  0  0  0  0  0  0  0  0  0  0  0
   21.1241   29.6291   22.8157 H   0  0  0  0  0  0  0  0  0  0  0  0
   26.7377   25.9059   19.2204 H   0  0  0  0  0  0  0  0  0  0  0  0
   25.6963   25.0680   20.3825 H   0  0  0  0  0  0  0  0  0  0  0  0
   27.1907   25.8928   20.9337 H   0  0  0  0  0  0  0  0  0  0  0  0
   22.8598   26.9658   23.3030 H   0  0  0  0  0  0  0  0  0  0  0  0
   26.5946   32.0216   21.4772 H   0  0  0  0  0  0  0  0  0  0  0  0
   25.9760   31.8436   19.8123 H   0  0  0  0  0  0  0  0  0  0  0  0
   28.7175   32.0415   20.7283 H   0  0  0  0  0  0  0  0  0  0  0  0
   36.7874   30.4160   20.3145 H   0  0  0  0  0  0  0  0  0  0  0  0
   35.7905   31.8113   19.9214 H   0  0  0  0  0  0  0  0  0  0  0  0
   35.0075   30.5394   18.1327 H   0  0  0  0  0  0  0  0  0  0  0  0
  1  2  2  0  0  0  0
  1  6  1  0  0  0  0
  1 32  1  0  0  0  0
  2  3  1  0  0  0  0
  2  7  1  0  0  0  0
  3  4  2  0  0  0  0
  3 33  1  0  0  0  0
  4  5  1  0  0  0  0
  4 15  1  0  0  0  0
  5  6  2  0  0  0  0
  5 34  1  0  0  0  0
  6 35  1  0  0  0  0
  7  8  1  0  0  0  0
  7 11  2  0  0  0  0
  8  9  1  0  0  0  0
  9 10  2  0  0  0  0
 10 11  1  0  0  0  0
 10 12  1  0  0  0  0
 11 30  1  0  0  0  0
 12 13  2  0  0  0  0
 12 14  1  0  0  0  0
 15 29  2  0  0  0  0
 15 36  1  0  0  0  0
 16 17  2  0  0  0  0
 16 21  1  0  0  0  0
 16 27  1  0  0  0  0
 17 18  1  0  0  0  0
 17 37  1  0  0  0  0
 18 19  2  0  0  0  0
 18 38  1  0  0  0  0
 19 20  1  0  0  0  0
 19 39  1  0  0  0  0
 20 21  2  0  0  0  0
 20 26  1  0  0  0  0
 21 22  1  0  0  0  0
 22 23  2  0  0  0  0
 22 24  1  0  0  0  0
 24 25  1  0  0  0  0
 25 40  1  0  0  0  0
 25 41  1  0  0  0  0
 25 42  1  0  0  0  0
 26 43  1  0  0  0  0
 27 28  1  0  0  0  0
 28 29  1  0  0  0  0
 28 44  1  0  0  0  0
 28 45  1  0  0  0  0
 29 46  1  0  0  0  0
 30 31  1  0  0  0  0
 30 47  1  0  0  0  0
 30 48  1  0  0  0  0
 31 49  1  0  0  0  0
M  END
$$$$
