JE2
 OpenBabel04041915473D

 78 81  0  0  1  0  0  0  0  0999 V2000
   10.3628   18.0169   18.6843 C   0  0  0  0  0  0  0  0  0  0  0  0
   10.4283   18.7213   17.4887 C   0  0  0  0  0  0  0  0  0  0  0  0
   11.5347   19.5256   17.2262 C   0  0  0  0  0  0  0  0  0  0  0  0
   12.5771   19.6374   18.1650 C   0  0  0  0  0  0  0  0  0  0  0  0
   12.5287   18.9237   19.3744 C   0  0  0  0  0  0  0  0  0  0  0  0
   11.4048   18.1109   19.6056 C   0  0  0  0  0  0  0  0  0  0  0  0
   13.6114   18.9843   20.4160 C   0  0  0  0  0  0  0  0  0  0  0  0
   13.7184   20.5233   17.8268 C   0  0  0  0  0  0  0  0  0  0  0  0
   13.3630   21.7892   17.4260 N   0  0  0  0  0  0  0  0  0  0  0  0
   14.3612   22.8174   17.0897 C   0  0  1  0  0  0  0  0  0  0  0  0
   13.9501   23.5461   15.7857 C   0  0  0  0  0  0  0  0  0  0  0  0
   14.5000   23.7760   18.2974 C   0  0  1  0  0  0  0  0  0  0  0  0
   15.8457   24.5317   18.2450 C   0  0  0  0  0  0  0  0  0  0  0  0
   16.9564   23.9331   18.8054 N   0  0  0  0  0  0  0  0  0  0  0  0
   18.2784   24.5719   18.6803 C   0  0  1  0  0  0  0  0  0  0  0  0
   19.1803   24.0695   19.8325 C   0  0  0  0  0  0  0  0  0  0  0  0
   18.6266   22.3513   20.0986 S   0  0  0  0  0  0  0  0  0  0  0  0
   16.9437   22.6885   19.5532 C   0  0  0  0  0  0  0  0  0  0  0  0
   13.8395   22.6067   14.5994 C   0  0  0  0  0  0  0  0  0  0  0  0
   14.9613   22.3100   13.8160 C   0  0  0  0  0  0  0  0  0  0  0  0
   14.8678   21.3901   12.7688 C   0  0  0  0  0  0  0  0  0  0  0  0
   13.6591   20.7479   12.5034 C   0  0  0  0  0  0  0  0  0  0  0  0
   12.5349   21.0401   13.2712 C   0  0  0  0  0  0  0  0  0  0  0  0
   12.6217   21.9743   14.3045 C   0  0  0  0  0  0  0  0  0  0  0  0
   13.3745   24.6618   18.3469 O   0  0  0  0  0  0  0  0  0  0  0  0
   15.9023   25.6670   17.7643 O   0  0  0  0  0  0  0  0  0  0  0  0
   18.8866   24.8586   21.1204 C   0  0  0  0  0  0  0  0  0  0  0  0
   20.6857   24.0846   19.5643 C   0  0  0  0  0  0  0  0  0  0  0  0
   18.8483   24.2863   17.2656 C   0  0  0  0  0  0  0  0  0  0  0  0
   19.6961   25.2666   16.7913 N   0  0  0  0  0  0  0  0  0  0  0  0
   20.3858   25.1377   15.5268 C   0  0  0  0  0  0  0  0  0  0  0  0
   18.5983   23.2655   16.6288 O   0  0  0  0  0  0  0  0  0  0  0  0
   11.3416   17.4114   20.7803 O   0  0  0  0  0  0  0  0  0  0  0  0
   14.8766   20.1396   17.9362 O   0  0  0  0  0  0  0  0  0  0  0  0
   20.7292   26.4988   14.9696 C   0  0  0  0  0  0  0  0  0  0  0  0
   22.0079   27.0288   15.2319 C   0  0  0  0  0  0  0  0  0  0  0  0
   22.3746   28.2918   14.7662 C   0  0  0  0  0  0  0  0  0  0  0  0
   21.4687   29.0492   14.0342 C   0  0  0  0  0  0  0  0  0  0  0  0
   20.1947   28.5458   13.7746 C   0  0  0  0  0  0  0  0  0  0  0  0
   19.8050   27.2767   14.2408 C   0  0  0  0  0  0  0  0  0  0  0  0
   18.4080   26.8203   13.9133 C   0  0  0  0  0  0  0  0  0  0  0  0
    9.4968   17.3883   18.8801 H   0  0  0  0  0  0  0  0  0  0  0  0
    9.6283   18.6409   16.7576 H   0  0  0  0  0  0  0  0  0  0  0  0
   11.5962   20.0480   16.2756 H   0  0  0  0  0  0  0  0  0  0  0  0
   14.3800   19.7288   20.2089 H   0  0  0  0  0  0  0  0  0  0  0  0
   14.1006   18.0093   20.5004 H   0  0  0  0  0  0  0  0  0  0  0  0
   13.1802   19.2551   21.3891 H   0  0  0  0  0  0  0  0  0  0  0  0
   12.4001   22.0910   17.5121 H   0  0  0  0  0  0  0  0  0  0  0  0
   15.3194   22.3128   16.9165 H   0  0  0  0  0  0  0  0  0  0  0  0
   14.6768   24.3324   15.5471 H   0  0  0  0  0  0  0  0  0  0  0  0
   12.9846   24.0530   15.9113 H   0  0  0  0  0  0  0  0  0  0  0  0
   14.4569   23.2125   19.2341 H   0  0  0  0  0  0  0  0  0  0  0  0
   18.1452   25.6594   18.7522 H   0  0  0  0  0  0  0  0  0  0  0  0
   16.5404   21.8734   18.9532 H   0  0  0  0  0  0  0  0  0  0  0  0
   16.3131   22.8330   20.4372 H   0  0  0  0  0  0  0  0  0  0  0  0
   15.9195   22.7815   14.0246 H   0  0  0  0  0  0  0  0  0  0  0  0
   15.7453   21.1625   12.1692 H   0  0  0  0  0  0  0  0  0  0  0  0
   13.5963   20.0163   11.7023 H   0  0  0  0  0  0  0  0  0  0  0  0
   11.5946   20.5337   13.0716 H   0  0  0  0  0  0  0  0  0  0  0  0
   11.7370   22.1896   14.8982 H   0  0  0  0  0  0  0  0  0  0  0  0
   13.6707   25.4619   18.8197 H   0  0  0  0  0  0  0  0  0  0  0  0
   19.4526   24.4657   21.9736 H   0  0  0  0  0  0  0  0  0  0  0  0
   17.8238   24.8422   21.3895 H   0  0  0  0  0  0  0  0  0  0  0  0
   19.1709   25.9100   20.9981 H   0  0  0  0  0  0  0  0  0  0  0  0
   21.2494   23.7205   20.4323 H   0  0  0  0  0  0  0  0  0  0  0  0
   21.0331   25.1041   19.3629 H   0  0  0  0  0  0  0  0  0  0  0  0
   20.9686   23.4584   18.7110 H   0  0  0  0  0  0  0  0  0  0  0  0
   19.8391   26.1194   17.3154 H   0  0  0  0  0  0  0  0  0  0  0  0
   19.8017   24.5462   14.8142 H   0  0  0  0  0  0  0  0  0  0  0  0
   21.2990   24.5611   15.7172 H   0  0  0  0  0  0  0  0  0  0  0  0
   10.5479   16.8524   20.7695 H   0  0  0  0  0  0  0  0  0  0  0  0
   22.7329   26.4528   15.8038 H   0  0  0  0  0  0  0  0  0  0  0  0
   23.3678   28.6821   14.9723 H   0  0  0  0  0  0  0  0  0  0  0  0
   21.7499   30.0319   13.6648 H   0  0  0  0  0  0  0  0  0  0  0  0
   19.4956   29.1518   13.2008 H   0  0  0  0  0  0  0  0  0  0  0  0
   18.1492   25.8570   14.3567 H   0  0  0  0  0  0  0  0  0  0  0  0
   18.2945   26.7276   12.8279 H   0  0  0  0  0  0  0  0  0  0  0  0
   17.6817   27.5504   14.2860 H   0  0  0  0  0  0  0  0  0  0  0  0
  1  2  2  0  0  0  0
  1  6  1  0  0  0  0
  1 42  1  0  0  0  0
  2  3  1  0  0  0  0
  2 43  1  0  0  0  0
  3  4  2  0  0  0  0
  3 44  1  0  0  0  0
  4  5  1  0  0  0  0
  4  8  1  0  0  0  0
  5  6  2  0  0  0  0
  5  7  1  0  0  0  0
  6 33  1  0  0  0  0
  7 45  1  0  0  0  0
  7 46  1  0  0  0  0
  7 47  1  0  0  0  0
  8  9  1  0  0  0  0
  8 34  2  0  0  0  0
  9 10  1  0  0  0  0
  9 48  1  0  0  0  0
 10 11  1  0  0  0  0
 10 12  1  0  0  0  0
 10 49  1  6  0  0  0
 11 19  1  0  0  0  0
 11 50  1  0  0  0  0
 11 51  1  0  0  0  0
 12 13  1  0  0  0  0
 12 25  1  0  0  0  0
 12 52  1  1  0  0  0
 13 14  1  0  0  0  0
 13 26  2  0  0  0  0
 14 15  1  0  0  0  0
 14 18  1  0  0  0  0
 15 16  1  0  0  0  0
 15 29  1  0  0  0  0
 15 53  1  1  0  0  0
 16 17  1  0  0  0  0
 16 27  1  0  0  0  0
 16 28  1  0  0  0  0
 17 18  1  0  0  0  0
 18 54  1  0  0  0  0
 18 55  1  0  0  0  0
 19 20  2  0  0  0  0
 19 24  1  0  0  0  0
 20 21  1  0  0  0  0
 20 56  1  0  0  0  0
 21 22  2  0  0  0  0
 21 57  1  0  0  0  0
 22 23  1  0  0  0  0
 22 58  1  0  0  0  0
 23 24  2  0  0  0  0
 23 59  1  0  0  0  0
 24 60  1  0  0  0  0
 25 61  1  0  0  0  0
 27 62  1  0  0  0  0
 27 63  1  0  0  0  0
 27 64  1  0  0  0  0
 28 65  1  0  0  0  0
 28 66  1  0  0  0  0
 28 67  1  0  0  0  0
 29 30  1  0  0  0  0
 29 32  2  0  0  0  0
 30 31  1  0  0  0  0
 30 68  1  0  0  0  0
 31 35  1  0  0  0  0
 31 69  1  0  0  0  0
 31 70  1  0  0  0  0
 33 71  1  0  0  0  0
 35 36  2  0  0  0  0
 35 40  1  0  0  0  0
 36 37  1  0  0  0  0
 36 72  1  0  0  0  0
 37 38  2  0  0  0  0
 37 73  1  0  0  0  0
 38 39  1  0  0  0  0
 38 74  1  0  0  0  0
 39 40  2  0  0  0  0
 39 75  1  0  0  0  0
 40 41  1  0  0  0  0
 41 76  1  0  0  0  0
 41 77  1  0  0  0  0
 41 78  1  0  0  0  0
M  END
$$$$
