JE2
 OpenBabel04041915233D

 78 81  0  0  1  0  0  0  0  0999 V2000
   24.5111    2.4260   20.3525 C   0  0  0  0  0  0  0  0  0  0  0  0
   25.8640    2.4783   20.5372 O   0  0  0  0  0  0  0  0  0  0  0  0
   23.7180    3.4328   20.9020 C   0  0  0  0  0  0  0  0  0  0  0  0
   22.3381    3.3995   20.7224 C   0  0  0  0  0  0  0  0  0  0  0  0
   21.7622    2.3501   20.0098 C   0  0  0  0  0  0  0  0  0  0  0  0
   22.5688    1.3429   19.4505 C   0  0  0  0  0  0  0  0  0  0  0  0
   23.9660    1.3708   19.6129 C   0  0  0  0  0  0  0  0  0  0  0  0
   24.8594    0.3573   18.9537 C   0  0  0  0  0  0  0  0  0  0  0  0
   21.9084    0.2504   18.6958 C   0  0  0  0  0  0  0  0  0  0  0  0
   22.2019   -0.9254   18.8830 O   0  0  0  0  0  0  0  0  0  0  0  0
   20.9778    0.6576   17.7706 N   0  0  0  0  0  0  0  0  0  0  0  0
   20.1717   -0.2905   16.9853 C   0  0  1  0  0  0  0  0  0  0  0  0
   18.7054    0.2027   16.8904 C   0  0  0  0  0  0  0  0  0  0  0  0
   18.1447    0.6373   18.2310 C   0  0  0  0  0  0  0  0  0  0  0  0
   18.0566    2.0022   18.5486 C   0  0  0  0  0  0  0  0  0  0  0  0
   17.6476    2.4093   19.8191 C   0  0  0  0  0  0  0  0  0  0  0  0
   17.3094    1.4578   20.7781 C   0  0  0  0  0  0  0  0  0  0  0  0
   17.3712    0.1005   20.4652 C   0  0  0  0  0  0  0  0  0  0  0  0
   17.7907   -0.3104   19.1985 C   0  0  0  0  0  0  0  0  0  0  0  0
   20.8318   -0.4777   15.6011 C   0  0  2  0  0  0  0  0  0  0  0  0
   20.5854    0.6641   14.7731 O   0  0  0  0  0  0  0  0  0  0  0  0
   20.3495   -1.7926   14.9606 C   0  0  0  0  0  0  0  0  0  0  0  0
   19.3589   -1.8125   14.2246 O   0  0  0  0  0  0  0  0  0  0  0  0
   21.0930   -2.9325   15.1901 N   0  0  0  0  0  0  0  0  0  0  0  0
   22.3138   -2.9944   15.9795 C   0  0  0  0  0  0  0  0  0  0  0  0
   22.8191   -4.7220   16.0584 S   0  0  0  0  0  0  0  0  0  0  0  0
   21.8742   -5.1580   14.5610 C   0  0  0  0  0  0  0  0  0  0  0  0
   22.7529   -4.7914   13.3508 C   0  0  0  0  0  0  0  0  0  0  0  0
   21.5674   -6.6525   14.5329 C   0  0  0  0  0  0  0  0  0  0  0  0
   20.6460   -4.2226   14.6335 C   0  0  1  0  0  0  0  0  0  0  0  0
   19.4827   -4.7705   15.5047 C   0  0  0  0  0  0  0  0  0  0  0  0
   19.3780   -4.5311   16.7071 O   0  0  0  0  0  0  0  0  0  0  0  0
   18.5858   -5.5761   14.8260 N   0  0  0  0  0  0  0  0  0  0  0  0
   17.4503   -6.1933   15.4861 C   0  0  0  0  0  0  0  0  0  0  0  0
   16.1654   -5.9921   14.7133 C   0  0  0  0  0  0  0  0  0  0  0  0
   15.4934   -4.7500   14.6860 C   0  0  0  0  0  0  0  0  0  0  0  0
   14.2868   -4.6355   13.9690 C   0  0  0  0  0  0  0  0  0  0  0  0
   13.7427   -5.7218   13.2930 C   0  0  0  0  0  0  0  0  0  0  0  0
   14.4022   -6.9501   13.3153 C   0  0  0  0  0  0  0  0  0  0  0  0
   15.6044   -7.0754   14.0174 C   0  0  0  0  0  0  0  0  0  0  0  0
   15.9825   -3.5286   15.4198 C   0  0  0  0  0  0  0  0  0  0  0  0
   26.1585    3.3515   20.2295 H   0  0  0  0  0  0  0  0  0  0  0  0
   24.1652    4.2312   21.4890 H   0  0  0  0  0  0  0  0  0  0  0  0
   21.7099    4.1776   21.1501 H   0  0  0  0  0  0  0  0  0  0  0  0
   20.6803    2.3042   19.9122 H   0  0  0  0  0  0  0  0  0  0  0  0
   25.9162    0.5180   19.1877 H   0  0  0  0  0  0  0  0  0  0  0  0
   24.7588    0.4324   17.8657 H   0  0  0  0  0  0  0  0  0  0  0  0
   24.6197   -0.6582   19.2799 H   0  0  0  0  0  0  0  0  0  0  0  0
   20.8716    1.6440   17.5624 H   0  0  0  0  0  0  0  0  0  0  0  0
   20.1769   -1.2472   17.5237 H   0  0  0  0  0  0  0  0  0  0  0  0
   18.0675   -0.5868   16.4746 H   0  0  0  0  0  0  0  0  0  0  0  0
   18.6257    1.0498   16.1978 H   0  0  0  0  0  0  0  0  0  0  0  0
   18.3334    2.7555   17.8146 H   0  0  0  0  0  0  0  0  0  0  0  0
   17.6067    3.4671   20.0641 H   0  0  0  0  0  0  0  0  0  0  0  0
   17.0013    1.7719   21.7720 H   0  0  0  0  0  0  0  0  0  0  0  0
   17.1074   -0.6424   21.2135 H   0  0  0  0  0  0  0  0  0  0  0  0
   17.8607   -1.3739   18.9791 H   0  0  0  0  0  0  0  0  0  0  0  0
   21.9206   -0.5151   15.7076 H   0  0  0  0  0  0  0  0  0  0  0  0
   20.8640    0.4211   13.8719 H   0  0  0  0  0  0  0  0  0  0  0  0
   22.1713   -2.5592   16.9668 H   0  0  0  0  0  0  0  0  0  0  0  0
   23.0875   -2.4302   15.4456 H   0  0  0  0  0  0  0  0  0  0  0  0
   22.2398   -5.0397   12.4156 H   0  0  0  0  0  0  0  0  0  0  0  0
   23.7039   -5.3372   13.3614 H   0  0  0  0  0  0  0  0  0  0  0  0
   22.9870   -3.7208   13.3082 H   0  0  0  0  0  0  0  0  0  0  0  0
   21.0170   -6.9106   13.6209 H   0  0  0  0  0  0  0  0  0  0  0  0
   20.9667   -6.9783   15.3886 H   0  0  0  0  0  0  0  0  0  0  0  0
   22.4865   -7.2505   14.5364 H   0  0  0  0  0  0  0  0  0  0  0  0
   20.2403   -4.0477   13.6284 H   0  0  0  0  0  0  0  0  0  0  0  0
   18.6501   -5.6783   13.8231 H   0  0  0  0  0  0  0  0  0  0  0  0
   17.3339   -5.8338   16.5132 H   0  0  0  0  0  0  0  0  0  0  0  0
   17.6845   -7.2637   15.5603 H   0  0  0  0  0  0  0  0  0  0  0  0
   13.7581   -3.6825   13.9478 H   0  0  0  0  0  0  0  0  0  0  0  0
   12.8080   -5.6195   12.7499 H   0  0  0  0  0  0  0  0  0  0  0  0
   13.9759   -7.8044   12.7955 H   0  0  0  0  0  0  0  0  0  0  0  0
   16.0972   -8.0527   14.0306 H   0  0  0  0  0  0  0  0  0  0  0  0
   16.9305   -3.6851   15.9333 H   0  0  0  0  0  0  0  0  0  0  0  0
   15.2509   -3.2368   16.1796 H   0  0  0  0  0  0  0  0  0  0  0  0
   16.1270   -2.7016   14.7170 H   0  0  0  0  0  0  0  0  0  0  0  0
  1  7  2  0  0  0  0
  1  3  1  0  0  0  0
  1  2  1  0  0  0  0
  2 42  1  0  0  0  0
  3  4  2  0  0  0  0
  3 43  1  0  0  0  0
  4  5  1  0  0  0  0
  4 44  1  0  0  0  0
  5  6  2  0  0  0  0
  5 45  1  0  0  0  0
  6  9  1  0  0  0  0
  6  7  1  0  0  0  0
  7  8  1  0  0  0  0
  8 46  1  0  0  0  0
  8 47  1  0  0  0  0
  8 48  1  0  0  0  0
  9 11  1  0  0  0  0
  9 10  2  0  0  0  0
 11 12  1  0  0  0  0
 11 49  1  0  0  0  0
 12 20  1  0  0  0  0
 12 13  1  0  0  0  0
 12 50  1  1  0  0  0
 13 14  1  0  0  0  0
 13 51  1  0  0  0  0
 13 52  1  0  0  0  0
 14 19  2  0  0  0  0
 14 15  1  0  0  0  0
 15 16  2  0  0  0  0
 15 53  1  0  0  0  0
 16 17  1  0  0  0  0
 16 54  1  0  0  0  0
 17 18  2  0  0  0  0
 17 55  1  0  0  0  0
 18 19  1  0  0  0  0
 18 56  1  0  0  0  0
 19 57  1  0  0  0  0
 20 22  1  0  0  0  0
 20 21  1  0  0  0  0
 20 58  1  1  0  0  0
 21 59  1  0  0  0  0
 22 24  1  0  0  0  0
 22 23  2  0  0  0  0
 24 30  1  0  0  0  0
 24 25  1  0  0  0  0
 25 26  1  0  0  0  0
 25 60  1  0  0  0  0
 25 61  1  0  0  0  0
 26 27  1  0  0  0  0
 27 30  1  0  0  0  0
 27 29  1  0  0  0  0
 27 28  1  0  0  0  0
 28 62  1  0  0  0  0
 28 63  1  0  0  0  0
 28 64  1  0  0  0  0
 29 65  1  0  0  0  0
 29 66  1  0  0  0  0
 29 67  1  0  0  0  0
 30 31  1  0  0  0  0
 30 68  1  6  0  0  0
 31 33  1  0  0  0  0
 31 32  2  0  0  0  0
 33 34  1  0  0  0  0
 33 69  1  0  0  0  0
 34 35  1  0  0  0  0
 34 70  1  0  0  0  0
 34 71  1  0  0  0  0
 35 40  2  0  0  0  0
 35 36  1  0  0  0  0
 36 41  1  0  0  0  0
 36 37  2  0  0  0  0
 37 38  1  0  0  0  0
 37 72  1  0  0  0  0
 38 39  2  0  0  0  0
 38 73  1  0  0  0  0
 39 40  1  0  0  0  0
 39 74  1  0  0  0  0
 40 75  1  0  0  0  0
 41 76  1  0  0  0  0
 41 77  1  0  0  0  0
 41 78  1  0  0  0  0
M  END
$$$$
