K25
 OpenBabel04041917583D

 23 24  0  0  0  0  0  0  0  0999 V2000
   21.5112    8.7394   19.1057 C   0  0  0  0  0  0  0  0  0  0  0  0
   21.2670    8.2534   20.4124 C   0  0  0  0  0  0  0  0  0  0  0  0
   21.9738    7.1389   20.9034 C   0  0  0  0  0  0  0  0  0  0  0  0
   22.4739    8.1166   18.2748 C   0  0  0  0  0  0  0  0  0  0  0  0
   23.7015    5.4418   20.1921 N   0  3  0  0  0  0  0  0  0  0  0  0
   23.1538    6.9814   18.7564 C   0  0  0  0  0  0  0  0  0  0  0  0
   22.8870    6.5335   20.0413 C   0  0  0  0  0  0  0  0  0  0  0  0
   24.4075    5.2410   19.0369 C   0  0  0  0  0  0  0  0  0  0  0  0
   24.0993    6.1686   18.1606 N   0  0  0  0  0  0  0  0  0  0  0  0
   25.2692    4.2024   18.9186 N   0  0  0  0  0  0  0  0  0  0  0  0
   25.5123    3.2527   19.9876 C   0  0  0  0  0  0  0  0  0  0  0  0
   25.9741    3.9922   17.6636 C   0  0  0  0  0  0  0  0  0  0  0  0
   20.5253   10.2440   18.4343 Br  0  0  0  0  0  0  0  0  0  0  0  0
   19.9708    9.0946   21.5502 Br  0  0  0  0  0  0  0  0  0  0  0  0
   21.7705    6.4094   22.6451 Br  0  0  0  0  0  0  0  0  0  0  0  0
   22.9134    8.7389   16.5297 Br  0  0  0  0  0  0  0  0  0  0  0  0
   23.7593    4.8680   21.0164 H   0  0  0  0  0  0  0  0  0  0  0  0
   26.2683    2.5104   19.7086 H   0  0  0  0  0  0  0  0  0  0  0  0
   24.5948    2.7094   20.2402 H   0  0  0  0  0  0  0  0  0  0  0  0
   25.8756    3.7662   20.8848 H   0  0  0  0  0  0  0  0  0  0  0  0
   25.7300    4.7336   16.8957 H   0  0  0  0  0  0  0  0  0  0  0  0
   25.7321    3.0035   17.2578 H   0  0  0  0  0  0  0  0  0  0  0  0
   27.0558    4.0340   17.8335 H   0  0  0  0  0  0  0  0  0  0  0  0
  1  2  2  0  0  0  0
  1  4  1  0  0  0  0
  1 13  1  0  0  0  0
  2  3  1  0  0  0  0
  2 14  1  0  0  0  0
  3  7  2  0  0  0  0
  3 15  1  0  0  0  0
  4  6  2  0  0  0  0
  4 16  1  0  0  0  0
  5  7  1  0  0  0  0
  5  8  2  0  0  0  0
  5 17  1  0  0  0  0
  6  7  1  0  0  0  0
  6  9  1  0  0  0  0
  8  9  1  0  0  0  0
  8 10  1  0  0  0  0
 10 11  1  0  0  0  0
 10 12  1  0  0  0  0
 11 18  1  0  0  0  0
 11 19  1  0  0  0  0
 11 20  1  0  0  0  0
 12 21  1  0  0  0  0
 12 22  1  0  0  0  0
 12 23  1  0  0  0  0
M  CHG  1   5   1
M  END
$$$$
