K37
 OpenBabel04041917593D

 19 20  0  0  0  0  0  0  0  0999 V2000
   20.9409    9.2181   18.4813 C   0  0  0  0  0  0  0  0  0  0  0  0
   21.9295    8.5773   17.6980 C   0  0  0  0  0  0  0  0  0  0  0  0
   22.6019    7.4292   18.1933 C   0  0  0  0  0  0  0  0  0  0  0  0
   20.6279    8.7436   19.7679 C   0  0  0  0  0  0  0  0  0  0  0  0
   21.2291    6.8979   21.3929 N   0  3  0  0  0  0  0  0  0  0  0  0
   21.3046    7.6114   20.2205 C   0  0  0  0  0  0  0  0  0  0  0  0
   22.2665    6.9376   19.4703 C   0  0  0  0  0  0  0  0  0  0  0  0
   22.7443    5.8407   20.1781 N   0  0  0  0  0  0  0  0  0  0  0  0
   22.0943    5.8542   21.3181 C   0  0  0  0  0  0  0  0  0  0  0  0
   22.2385    4.7916   22.6650 S   0  0  0  0  0  0  0  0  0  0  0  0
   22.6173    3.2126   21.8804 C   0  0  0  0  0  0  0  0  0  0  0  0
   19.3520    9.5422   20.9277 Br  0  0  0  0  0  0  0  0  0  0  0  0
   19.9949   10.7477   17.8023 Br  0  0  0  0  0  0  0  0  0  0  0  0
   22.3848    9.2542   15.9624 Br  0  0  0  0  0  0  0  0  0  0  0  0
   23.9387    6.4943   17.2105 Br  0  0  0  0  0  0  0  0  0  0  0  0
   20.6301    7.1004   22.1809 H   0  0  0  0  0  0  0  0  0  0  0  0
   22.7223    2.4536   22.6605 H   0  0  0  0  0  0  0  0  0  0  0  0
   23.5540    3.2591   21.3198 H   0  0  0  0  0  0  0  0  0  0  0  0
   21.8051    2.9059   21.2163 H   0  0  0  0  0  0  0  0  0  0  0  0
  1  2  2  0  0  0  0
  1  4  1  0  0  0  0
  1 13  1  0  0  0  0
  2  3  1  0  0  0  0
  2 14  1  0  0  0  0
  3  7  2  0  0  0  0
  3 15  1  0  0  0  0
  4  6  2  0  0  0  0
  4 12  1  0  0  0  0
  5  6  1  0  0  0  0
  5  9  2  0  0  0  0
  5 16  1  0  0  0  0
  6  7  1  0  0  0  0
  7  8  1  0  0  0  0
  8  9  1  0  0  0  0
  9 10  1  0  0  0  0
 10 11  1  0  0  0  0
 11 17  1  0  0  0  0
 11 18  1  0  0  0  0
 11 19  1  0  0  0  0
M  CHG  1   5   1
M  END
$$$$
