K57
 OpenBabel04041915473D

 74 76  0  0  1  0  0  0  0  0999 V2000
   11.1351   17.7219   19.0464 C   0  0  0  0  0  0  0  0  0  0  0  0
   11.2154   18.4042   17.8392 C   0  0  0  0  0  0  0  0  0  0  0  0
   12.2887   19.2584   17.5970 C   0  0  0  0  0  0  0  0  0  0  0  0
   13.2917   19.4371   18.5640 C   0  0  0  0  0  0  0  0  0  0  0  0
   13.2279   18.7522   19.7921 C   0  0  0  0  0  0  0  0  0  0  0  0
   12.1304   17.9012   20.0090 C   0  0  0  0  0  0  0  0  0  0  0  0
   14.2579   18.9129   20.8779 C   0  0  0  0  0  0  0  0  0  0  0  0
   14.4148   20.3407   18.2145 C   0  0  0  0  0  0  0  0  0  0  0  0
   14.0839   21.5807   17.7541 N   0  0  0  0  0  0  0  0  0  0  0  0
   15.0959   22.5675   17.3534 C   0  0  1  0  0  0  0  0  0  0  0  0
   15.0671   22.9139   15.8443 C   0  0  0  0  0  0  0  0  0  0  0  0
   15.0968   23.6894   18.4314 C   0  0  1  0  0  0  0  0  0  0  0  0
   16.3294   24.6273   18.4314 C   0  0  0  0  0  0  0  0  0  0  0  0
   17.4695   24.0598   19.0332 N   0  0  0  0  0  0  0  0  0  0  0  0
   18.7546   24.7356   18.8680 C   0  0  1  0  0  0  0  0  0  0  0  0
   19.7569   24.1305   19.8770 C   0  0  0  0  0  0  0  0  0  0  0  0
   19.2412   22.3992   20.0714 S   0  0  0  0  0  0  0  0  0  0  0  0
   17.5360   22.7623   19.6767 C   0  0  0  0  0  0  0  0  0  0  0  0
   14.1701   22.0435   14.9757 C   0  0  0  0  0  0  0  0  0  0  0  0
   14.7083   21.0609   14.1296 C   0  0  0  0  0  0  0  0  0  0  0  0
   13.8749   20.2544   13.3506 C   0  0  0  0  0  0  0  0  0  0  0  0
   12.4913   20.4174   13.4154 C   0  0  0  0  0  0  0  0  0  0  0  0
   11.9449   21.3878   14.2513 C   0  0  0  0  0  0  0  0  0  0  0  0
   12.7761   22.2008   15.0220 C   0  0  0  0  0  0  0  0  0  0  0  0
   13.8196   24.2749   18.6533 O   0  0  0  0  0  0  0  0  0  0  0  0
   16.3167   25.7643   17.9873 O   0  0  0  0  0  0  0  0  0  0  0  0
   19.6201   24.7719   21.2705 C   0  0  0  0  0  0  0  0  0  0  0  0
   21.2090   24.1600   19.4227 C   0  0  0  0  0  0  0  0  0  0  0  0
   19.1417   24.5393   17.3667 C   0  0  0  0  0  0  0  0  0  0  0  0
   19.7661   25.6459   16.8227 N   0  0  0  0  0  0  0  0  0  0  0  0
   20.2018   25.7955   15.4234 C   0  0  0  0  0  0  0  0  0  0  0  0
   18.9072   23.5084   16.7370 O   0  0  0  0  0  0  0  0  0  0  0  0
   12.0266   17.2440   21.2048 O   0  0  0  0  0  0  0  0  0  0  0  0
   15.5819   19.9620   18.3550 O   0  0  0  0  0  0  0  0  0  0  0  0
   20.7560   27.2245   15.2672 C   0  0  0  0  0  0  0  0  0  0  0  0
   19.0415   25.6165   14.4308 C   0  0  0  0  0  0  0  0  0  0  0  0
   21.3249   24.8017   15.1052 C   0  0  0  0  0  0  0  0  0  0  0  0
   10.2923   17.0594   19.2233 H   0  0  0  0  0  0  0  0  0  0  0  0
   10.4489   18.2688   17.0800 H   0  0  0  0  0  0  0  0  0  0  0  0
   12.3571   19.7635   16.6372 H   0  0  0  0  0  0  0  0  0  0  0  0
   15.0531   19.6154   20.6246 H   0  0  0  0  0  0  0  0  0  0  0  0
   14.7299   17.9495   21.0992 H   0  0  0  0  0  0  0  0  0  0  0  0
   13.7862   19.2997   21.7873 H   0  0  0  0  0  0  0  0  0  0  0  0
   13.1196   21.8865   17.7828 H   0  0  0  0  0  0  0  0  0  0  0  0
   16.0648   22.0794   17.4440 H   0  0  0  0  0  0  0  0  0  0  0  0
   16.0955   22.7747   15.4699 H   0  0  0  0  0  0  0  0  0  0  0  0
   14.8475   23.9681   15.6574 H   0  0  0  0  0  0  0  0  0  0  0  0
   15.2155   23.1280   19.3613 H   0  0  0  0  0  0  0  0  0  0  0  0
   18.6284   25.8077   19.0490 H   0  0  0  0  0  0  0  0  0  0  0  0
   17.1561   21.9786   19.0323 H   0  0  0  0  0  0  0  0  0  0  0  0
   16.9369   22.7934   20.5925 H   0  0  0  0  0  0  0  0  0  0  0  0
   15.7861   20.9132   14.0688 H   0  0  0  0  0  0  0  0  0  0  0  0
   14.3023   19.5038   12.6948 H   0  0  0  0  0  0  0  0  0  0  0  0
   11.8446   19.7857   12.8144 H   0  0  0  0  0  0  0  0  0  0  0  0
   10.8649   21.5065   14.3084 H   0  0  0  0  0  0  0  0  0  0  0  0
   12.3357   22.9440   15.6804 H   0  0  0  0  0  0  0  0  0  0  0  0
   13.7580   24.3671   19.6276 H   0  0  0  0  0  0  0  0  0  0  0  0
   20.3113   24.3129   21.9909 H   0  0  0  0  0  0  0  0  0  0  0  0
   18.6081   24.6752   21.6835 H   0  0  0  0  0  0  0  0  0  0  0  0
   19.8546   25.8401   21.2324 H   0  0  0  0  0  0  0  0  0  0  0  0
   21.8723   23.7139   20.1727 H   0  0  0  0  0  0  0  0  0  0  0  0
   21.5381   25.1911   19.2599 H   0  0  0  0  0  0  0  0  0  0  0  0
   21.3564   23.6064   18.4886 H   0  0  0  0  0  0  0  0  0  0  0  0
   19.8112   26.4774   17.3954 H   0  0  0  0  0  0  0  0  0  0  0  0
   11.2344   16.6824   21.1845 H   0  0  0  0  0  0  0  0  0  0  0  0
   21.1240   27.4096   14.2532 H   0  0  0  0  0  0  0  0  0  0  0  0
   21.5822   27.4010   15.9664 H   0  0  0  0  0  0  0  0  0  0  0  0
   19.9834   27.9713   15.4883 H   0  0  0  0  0  0  0  0  0  0  0  0
   19.3878   25.7336   13.3972 H   0  0  0  0  0  0  0  0  0  0  0  0
   18.2534   26.3577   14.6019 H   0  0  0  0  0  0  0  0  0  0  0  0
   18.5836   24.6259   14.5073 H   0  0  0  0  0  0  0  0  0  0  0  0
   21.6766   24.9172   14.0745 H   0  0  0  0  0  0  0  0  0  0  0  0
   20.9963   23.7649   15.2297 H   0  0  0  0  0  0  0  0  0  0  0  0
   22.1823   24.9565   15.7712 H   0  0  0  0  0  0  0  0  0  0  0  0
  1  2  2  0  0  0  0
  1  6  1  0  0  0  0
  1 38  1  0  0  0  0
  2  3  1  0  0  0  0
  2 39  1  0  0  0  0
  3  4  2  0  0  0  0
  3 40  1  0  0  0  0
  4  5  1  0  0  0  0
  4  8  1  0  0  0  0
  5  6  2  0  0  0  0
  5  7  1  0  0  0  0
  6 33  1  0  0  0  0
  7 41  1  0  0  0  0
  7 42  1  0  0  0  0
  7 43  1  0  0  0  0
  8  9  1  0  0  0  0
  8 34  2  0  0  0  0
  9 10  1  0  0  0  0
  9 44  1  0  0  0  0
 10 11  1  0  0  0  0
 10 12  1  0  0  0  0
 10 45  1  1  0  0  0
 11 19  1  0  0  0  0
 11 46  1  0  0  0  0
 11 47  1  0  0  0  0
 12 13  1  0  0  0  0
 12 25  1  0  0  0  0
 12 48  1  1  0  0  0
 13 14  1  0  0  0  0
 13 26  2  0  0  0  0
 14 15  1  0  0  0  0
 14 18  1  0  0  0  0
 15 16  1  0  0  0  0
 15 29  1  0  0  0  0
 15 49  1  1  0  0  0
 16 17  1  0  0  0  0
 16 27  1  0  0  0  0
 16 28  1  0  0  0  0
 17 18  1  0  0  0  0
 18 50  1  0  0  0  0
 18 51  1  0  0  0  0
 19 20  2  0  0  0  0
 19 24  1  0  0  0  0
 20 21  1  0  0  0  0
 20 52  1  0  0  0  0
 21 22  2  0  0  0  0
 21 53  1  0  0  0  0
 22 23  1  0  0  0  0
 22 54  1  0  0  0  0
 23 24  2  0  0  0  0
 23 55  1  0  0  0  0
 24 56  1  0  0  0  0
 25 57  1  0  0  0  0
 27 58  1  0  0  0  0
 27 59  1  0  0  0  0
 27 60  1  0  0  0  0
 28 61  1  0  0  0  0
 28 62  1  0  0  0  0
 28 63  1  0  0  0  0
 29 30  1  0  0  0  0
 29 32  2  0  0  0  0
 30 31  1  0  0  0  0
 30 64  1  0  0  0  0
 31 35  1  0  0  0  0
 31 36  1  0  0  0  0
 31 37  1  0  0  0  0
 33 65  1  0  0  0  0
 35 66  1  0  0  0  0
 35 67  1  0  0  0  0
 35 68  1  0  0  0  0
 36 69  1  0  0  0  0
 36 70  1  0  0  0  0
 36 71  1  0  0  0  0
 37 72  1  0  0  0  0
 37 73  1  0  0  0  0
 37 74  1  0  0  0  0
M  END
$$$$
