KAI
 OpenBabel04041916183D

 29 29  0  0  1  0  0  0  0  0999 V2000
   13.6851    3.0184   16.0669 N   0  3  0  0  0  0  0  0  0  0  0  0
   14.6730    4.0856   15.8069 C   0  0  0  0  0  0  0  0  0  0  0  0
   17.1194    5.1054   14.4023 C   0  0  0  0  0  0  0  0  0  0  0  0
   18.5786    3.5860   15.7037 C   0  0  0  0  0  0  0  0  0  0  0  0
   14.4657    1.6847   16.2851 C   0  0  1  0  0  0  0  0  0  0  0  0
   15.8086    1.9572   15.6071 C   0  0  1  0  0  0  0  0  0  0  0  0
   15.7660    1.7103   14.0861 C   0  0  0  0  0  0  0  0  0  0  0  0
   16.0481    3.4347   15.9687 C   0  0  1  0  0  0  0  0  0  0  0  0
   15.8130    0.2429   13.6509 C   0  0  0  0  0  0  0  0  0  0  0  0
   17.2255    4.1070   15.2977 C   0  0  0  0  0  0  0  0  0  0  0  0
   14.5858    1.4203   17.8301 C   0  0  0  0  0  0  0  0  0  0  0  0
   13.8786    2.2795   18.4731 O   0  0  0  0  0  0  0  0  0  0  0  0
   15.6179    0.0769   12.4173 O   0  0  0  0  0  0  0  0  0  0  0  0
   16.0020   -0.6026   14.5625 O   0  0  0  0  0  0  0  0  0  0  0  0
   15.3440    0.5195   18.2398 O   0  0  0  0  0  0  0  0  0  0  0  0
   13.2541    3.1417   17.0088 H   0  0  0  0  0  0  0  0  0  0  0  0
   14.5277    4.8964   16.5341 H   0  0  0  0  0  0  0  0  0  0  0  0
   14.4526    4.4669   14.8037 H   0  0  0  0  0  0  0  0  0  0  0  0
   17.9974    5.5672   13.9630 H   0  0  0  0  0  0  0  0  0  0  0  0
   16.1635    5.4704   14.0413 H   0  0  0  0  0  0  0  0  0  0  0  0
   18.4988    2.7432   16.3954 H   0  0  0  0  0  0  0  0  0  0  0  0
   19.1503    4.3698   16.2089 H   0  0  0  0  0  0  0  0  0  0  0  0
   19.1378    3.2377   14.8277 H   0  0  0  0  0  0  0  0  0  0  0  0
   13.8574    0.9058   15.8199 H   0  0  0  0  0  0  0  0  0  0  0  0
   16.5940    1.3392   16.0467 H   0  0  0  0  0  0  0  0  0  0  0  0
   16.6360    2.1721   13.6068 H   0  0  0  0  0  0  0  0  0  0  0  0
   14.8734    2.1594   13.6385 H   0  0  0  0  0  0  0  0  0  0  0  0
   16.2688    3.4792   17.0554 H   0  0  0  0  0  0  0  0  0  0  0  0
   12.9622    2.8964   15.3474 H   0  0  0  0  0  0  0  0  0  0  0  0
  1  2  1  0  0  0  0
  1  5  1  0  0  0  0
  1 16  1  0  0  0  0
  1 29  1  0  0  0  0
  2  8  1  0  0  0  0
  2 17  1  0  0  0  0
  2 18  1  0  0  0  0
  3 10  2  0  0  0  0
  3 19  1  0  0  0  0
  3 20  1  0  0  0  0
  4 10  1  0  0  0  0
  4 21  1  0  0  0  0
  4 22  1  0  0  0  0
  4 23  1  0  0  0  0
  5  6  1  0  0  0  0
  5 11  1  0  0  0  0
  5 24  1  6  0  0  0
  6  7  1  0  0  0  0
  6  8  1  0  0  0  0
  6 25  1  1  0  0  0
  7  9  1  0  0  0  0
  7 26  1  0  0  0  0
  7 27  1  0  0  0  0
  8 10  1  0  0  0  0
  8 28  1  1  0  0  0
  9 13  2  0  0  0  0
  9 14  1  0  0  0  0
 11 12  2  0  0  0  0
 11 15  1  0  0  0  0
M  CHG  1   1   1
M  END
$$$$
