KEU
 OpenBabel04041915553D

 62 63  0  0  1  0  0  0  0  0999 V2000
   72.8356   18.9912   38.0325 O   0  0  0  0  0  0  0  0  0  0  0  0
   74.0835   19.1253   37.8593 C   0  0  0  0  0  0  0  0  0  0  0  0
   75.0040   18.2978   38.0979 O   0  0  0  0  0  0  0  0  0  0  0  0
   74.4838   20.4740   37.2644 C   0  0  0  0  0  0  0  0  0  0  0  0
   75.9899   20.6906   37.0427 C   0  0  0  0  0  0  0  0  0  0  0  0
   76.2903   22.0428   36.3848 C   0  0  2  0  0  0  0  0  0  0  0  0
   75.5684   22.0519   35.0924 N   0  0  0  0  0  0  0  0  0  0  0  0
   74.6305   22.9946   34.7558 C   0  0  0  0  0  0  0  0  0  0  0  0
   74.2700   23.9194   35.5253 O   0  0  0  0  0  0  0  0  0  0  0  0
   74.0087   22.9259   33.4233 C   0  0  0  0  0  0  0  0  0  0  0  0
   73.1110   23.9459   33.0361 C   0  0  0  0  0  0  0  0  0  0  0  0
   72.5492   23.9718   31.7490 C   0  0  0  0  0  0  0  0  0  0  0  0
   72.8540   22.9446   30.8181 C   0  0  0  0  0  0  0  0  0  0  0  0
   73.7063   21.9165   31.2585 C   0  0  0  0  0  0  0  0  0  0  0  0
   74.2873   21.9059   32.5210 C   0  0  0  0  0  0  0  0  0  0  0  0
   72.3599   22.9227   29.3589 C   0  0  1  0  0  0  0  0  0  0  0  0
   73.4513   22.3570   28.3566 C   0  0  0  0  0  0  0  0  0  0  0  0
   74.4788   23.4905   28.1053 C   0  0  0  0  0  0  0  0  0  0  0  0
   75.3442   23.5017   26.8376 C   0  0  0  0  0  0  0  0  0  0  0  0
   76.6136   24.3239   27.1547 C   0  0  0  0  0  0  0  0  0  0  0  0
   76.4890   25.7762   26.8339 C   0  0  0  0  0  0  0  0  0  0  0  0
   75.4890   26.2411   26.3199 O   0  0  0  0  0  0  0  0  0  0  0  0
   77.5056   26.6130   27.1423 N   0  3  0  0  0  0  0  0  0  0  0  0
   78.6243   26.1456   27.7362 C   0  0  0  0  0  0  0  0  0  0  0  0
   79.6030   27.0360   27.9906 N   0  0  0  0  0  0  0  0  0  0  0  0
   78.7782   24.8844   28.0326 N   0  0  0  0  0  0  0  0  0  0  0  0
   77.7806   23.9578   27.7478 C   0  0  0  0  0  0  0  0  0  0  0  0
   78.0800   22.6709   28.1235 N   0  0  0  0  0  0  0  0  0  0  0  0
   70.8994   22.4183   29.1004 C   0  0  0  0  0  0  0  0  0  0  0  0
   70.5355   22.7664   27.7487 O   0  0  0  0  0  0  0  0  0  0  0  0
   69.9631   23.1770   29.8798 O   0  0  0  0  0  0  0  0  0  0  0  0
   70.6375   20.9085   29.3461 C   0  0  0  0  0  0  0  0  0  0  0  0
   70.6763   20.5935   30.6580 F   0  0  0  0  0  0  0  0  0  0  0  0
   71.5171   20.1146   28.6972 F   0  0  0  0  0  0  0  0  0  0  0  0
   69.3936   20.5710   28.8971 F   0  0  0  0  0  0  0  0  0  0  0  0
   77.8398   22.3368   36.2225 C   0  0  0  0  0  0  0  0  0  0  0  0
   78.4293   22.7806   37.2560 O   0  0  0  0  0  0  0  0  0  0  0  0
   78.3227   22.1401   35.0651 O   0  0  0  0  0  0  0  0  0  0  0  0
   74.0912   21.2653   37.9145 H   0  0  0  0  0  0  0  0  0  0  0  0
   73.9478   20.5530   36.3088 H   0  0  0  0  0  0  0  0  0  0  0  0
   76.3667   19.8891   36.3941 H   0  0  0  0  0  0  0  0  0  0  0  0
   76.5077   20.6082   38.0047 H   0  0  0  0  0  0  0  0  0  0  0  0
   75.8838   22.8269   37.0299 H   0  0  0  0  0  0  0  0  0  0  0  0
   75.8431   21.3246   34.4857 H   0  0  0  0  0  0  0  0  0  0  0  0
   72.8762   24.7266   33.7690 H   0  0  0  0  0  0  0  0  0  0  0  0
   71.8926   24.8086   31.5154 H   0  0  0  0  0  0  0  0  0  0  0  0
   73.9728   21.0757   30.6249 H   0  0  0  0  0  0  0  0  0  0  0  0
   74.9566   21.0848   32.7640 H   0  0  0  0  0  0  0  0  0  0  0  0
   72.2866   23.9812   29.0713 H   0  0  0  0  0  0  0  0  0  0  0  0
   73.0078   21.9662   27.4356 H   0  0  0  0  0  0  0  0  0  0  0  0
   73.9707   21.4821   28.7676 H   0  0  0  0  0  0  0  0  0  0  0  0
   75.1469   23.5225   28.9709 H   0  0  0  0  0  0  0  0  0  0  0  0
   73.9464   24.4499   28.1112 H   0  0  0  0  0  0  0  0  0  0  0  0
   74.7647   23.9990   26.0351 H   0  0  0  0  0  0  0  0  0  0  0  0
   75.5201   22.4941   26.4441 H   0  0  0  0  0  0  0  0  0  0  0  0
   77.3871   27.5869   26.9425 H   0  0  0  0  0  0  0  0  0  0  0  0
   80.4217   26.7040   28.5044 H   0  0  0  0  0  0  0  0  0  0  0  0
   79.5141   28.0341   27.8687 H   0  0  0  0  0  0  0  0  0  0  0  0
   78.9541   22.5284   28.6233 H   0  0  0  0  0  0  0  0  0  0  0  0
   77.4357   21.8941   28.0556 H   0  0  0  0  0  0  0  0  0  0  0  0
   70.5838   23.7349   27.7118 H   0  0  0  0  0  0  0  0  0  0  0  0
   70.2375   24.1040   29.8307 H   0  0  0  0  0  0  0  0  0  0  0  0
  1  2  2  0  0  0  0
  2  3  1  0  0  0  0
  2  4  1  0  0  0  0
  4  5  1  0  0  0  0
  4 39  1  0  0  0  0
  4 40  1  0  0  0  0
  5  6  1  0  0  0  0
  5 41  1  0  0  0  0
  5 42  1  0  0  0  0
  6  7  1  0  0  0  0
  6 36  1  0  0  0  0
  6 43  1  1  0  0  0
  7  8  1  0  0  0  0
  7 44  1  0  0  0  0
  8  9  2  0  0  0  0
  8 10  1  0  0  0  0
 10 11  2  0  0  0  0
 10 15  1  0  0  0  0
 11 12  1  0  0  0  0
 11 45  1  0  0  0  0
 12 13  2  0  0  0  0
 12 46  1  0  0  0  0
 13 14  1  0  0  0  0
 13 16  1  0  0  0  0
 14 15  2  0  0  0  0
 14 47  1  0  0  0  0
 15 48  1  0  0  0  0
 16 17  1  0  0  0  0
 16 29  1  0  0  0  0
 16 49  1  6  0  0  0
 17 18  1  0  0  0  0
 17 50  1  0  0  0  0
 17 51  1  0  0  0  0
 18 19  1  0  0  0  0
 18 52  1  0  0  0  0
 18 53  1  0  0  0  0
 19 20  1  0  0  0  0
 19 54  1  0  0  0  0
 19 55  1  0  0  0  0
 20 21  1  0  0  0  0
 20 27  2  0  0  0  0
 21 22  2  0  0  0  0
 21 23  1  0  0  0  0
 23 24  1  0  0  0  0
 23 56  1  0  0  0  0
 24 25  1  0  0  0  0
 24 26  2  0  0  0  0
 25 57  1  0  0  0  0
 25 58  1  0  0  0  0
 26 27  1  0  0  0  0
 27 28  1  0  0  0  0
 28 59  1  0  0  0  0
 28 60  1  0  0  0  0
 29 30  1  0  0  0  0
 29 31  1  0  0  0  0
 29 32  1  0  0  0  0
 30 61  1  0  0  0  0
 31 62  1  0  0  0  0
 32 33  1  0  0  0  0
 32 34  1  0  0  0  0
 32 35  1  0  0  0  0
 36 37  2  0  0  0  0
 36 38  1  0  0  0  0
M  CHG  1  23   1
M  END
$$$$
