L04
 OpenBabel04041914553D

 99103  0  0  1  0  0  0  0  0999 V2000
   32.9248   37.5712   23.1996 C   0  0  0  0  0  0  0  0  0  0  0  0
   32.6215   36.2413   23.8814 C   0  0  2  0  0  0  0  0  0  0  0  0
   32.1347   36.3941   25.3525 C   0  0  0  0  0  0  0  0  0  0  0  0
   37.6844   41.4932   22.8652 C   0  0  0  0  0  0  0  0  0  0  0  0
   38.6054   31.8221   30.3846 C   0  0  0  0  0  0  0  0  0  0  0  0
   38.5297   32.1771   31.7359 C   0  0  0  0  0  0  0  0  0  0  0  0
   35.1420   35.8122   24.3755 C   0  0  1  0  0  0  0  0  0  0  0  0
   35.9152   34.7415   25.1593 C   0  0  0  0  0  0  0  0  0  0  0  0
   35.2187   34.3596   26.4582 C   0  0  0  0  0  0  0  0  0  0  0  0
   36.1267   33.6984   27.4570 C   0  0  0  0  0  0  0  0  0  0  0  0
   36.1896   32.3097   27.5449 C   0  0  0  0  0  0  0  0  0  0  0  0
   36.9983   31.7047   28.5005 C   0  0  0  0  0  0  0  0  0  0  0  0
   37.7611   32.4703   29.3859 C   0  0  0  0  0  0  0  0  0  0  0  0
   37.7005   33.8619   29.2877 C   0  0  0  0  0  0  0  0  0  0  0  0
   36.8949   34.4705   28.3296 C   0  0  0  0  0  0  0  0  0  0  0  0
   36.0153   36.2593   23.2101 C   0  0  0  0  0  0  0  0  0  0  0  0
   39.3332   31.5483   32.6888 C   0  0  0  0  0  0  0  0  0  0  0  0
   33.8173   35.2643   23.8376 C   0  0  0  0  0  0  0  0  0  0  0  0
   37.9316   37.6249   22.5412 C   0  0  1  0  0  0  0  0  0  0  0  0
   38.2727   39.0897   22.7686 C   0  0  0  0  0  0  0  0  0  0  0  0
   37.1053   40.0844   22.7436 C   0  0  0  0  0  0  0  0  0  0  0  0
   36.2939   39.9641   21.4640 C   0  0  0  0  0  0  0  0  0  0  0  0
   31.7004   38.4741   23.0814 C   0  0  0  0  0  0  0  0  0  0  0  0
   32.0223   39.7310   22.2754 C   0  0  0  0  0  0  0  0  0  0  0  0
   30.9225   40.7802   22.3772 C   0  0  0  0  0  0  0  0  0  0  0  0
   28.6928   39.8640   22.8702 C   0  0  0  0  0  0  0  0  0  0  0  0
   39.1989   36.7737   22.7013 C   0  0  0  0  0  0  0  0  0  0  0  0
   29.1254   40.2020   20.5496 C   0  0  0  0  0  0  0  0  0  0  0  0
   27.5239   39.3795   22.1078 C   0  0  0  0  0  0  0  0  0  0  0  0
   40.8075   35.4506   21.3568 C   0  0  0  0  0  0  0  0  0  0  0  0
   41.0980   35.0489   20.0546 C   0  0  0  0  0  0  0  0  0  0  0  0
   42.2186   34.2703   19.7943 C   0  0  0  0  0  0  0  0  0  0  0  0
   43.0552   33.8828   20.8375 C   0  0  0  0  0  0  0  0  0  0  0  0
   42.7671   34.2815   22.1407 C   0  0  0  0  0  0  0  0  0  0  0  0
   41.6455   35.0635   22.3971 C   0  0  0  0  0  0  0  0  0  0  0  0
   27.7672   39.5659   20.7456 C   0  0  0  0  0  0  0  0  0  0  0  0
   26.3478   38.7920   22.5662 C   0  0  0  0  0  0  0  0  0  0  0  0
   26.8184   39.1527   19.8146 C   0  0  0  0  0  0  0  0  0  0  0  0
   25.6324   38.5482   20.2603 C   0  0  0  0  0  0  0  0  0  0  0  0
   25.3997   38.3670   21.6285 C   0  0  0  0  0  0  0  0  0  0  0  0
   40.2142   30.5517   32.2973 C   0  0  0  0  0  0  0  0  0  0  0  0
   40.3113   30.1918   30.9629 C   0  0  0  0  0  0  0  0  0  0  0  0
   39.5106   30.8228   30.0121 C   0  0  0  0  0  0  0  0  0  0  0  0
   29.6152   40.3137   21.9229 N   0  0  0  0  0  0  0  0  0  0  0  0
   36.9962   37.1459   23.5385 N   0  0  0  0  0  0  0  0  0  0  0  0
   39.6724   36.2514   21.5254 N   0  0  0  0  0  0  0  0  0  0  0  0
   28.8283   39.8784   24.0515 O   0  0  0  0  0  0  0  0  0  0  0  0
   31.2281   35.5620   25.6727 O   0  0  0  0  0  0  0  0  0  0  0  0
   32.6802   37.2691   26.0747 O   0  0  0  0  0  0  0  0  0  0  0  0
   35.8793   35.8550   22.0613 O   0  0  0  0  0  0  0  0  0  0  0  0
   39.7207   36.6131   23.7967 O   0  0  0  0  0  0  0  0  0  0  0  0
   40.9751   29.9305   33.2093 F   0  0  0  0  0  0  0  0  0  0  0  0
   33.6857   38.1054   23.7744 H   0  0  0  0  0  0  0  0  0  0  0  0
   33.3088   37.3833   22.1902 H   0  0  0  0  0  0  0  0  0  0  0  0
   31.8175   35.7513   23.3085 H   0  0  0  0  0  0  0  0  0  0  0  0
   36.8846   42.2393   22.8523 H   0  0  0  0  0  0  0  0  0  0  0  0
   38.3687   41.6942   22.0303 H   0  0  0  0  0  0  0  0  0  0  0  0
   38.2441   41.5895   23.8036 H   0  0  0  0  0  0  0  0  0  0  0  0
   37.8278   32.9485   32.0468 H   0  0  0  0  0  0  0  0  0  0  0  0
   34.9517   36.6697   25.0252 H   0  0  0  0  0  0  0  0  0  0  0  0
   36.9157   35.1177   25.3899 H   0  0  0  0  0  0  0  0  0  0  0  0
   36.0107   33.8409   24.5387 H   0  0  0  0  0  0  0  0  0  0  0  0
   34.4014   33.6676   26.2323 H   0  0  0  0  0  0  0  0  0  0  0  0
   34.8029   35.2595   26.9183 H   0  0  0  0  0  0  0  0  0  0  0  0
   35.5994   31.6954   26.8734 H   0  0  0  0  0  0  0  0  0  0  0  0
   37.0259   30.6217   28.5602 H   0  0  0  0  0  0  0  0  0  0  0  0
   38.2882   34.4807   29.9590 H   0  0  0  0  0  0  0  0  0  0  0  0
   36.8559   35.5534   28.2675 H   0  0  0  0  0  0  0  0  0  0  0  0
   39.2648   31.8442   33.7278 H   0  0  0  0  0  0  0  0  0  0  0  0
   33.9587   34.9498   22.7940 H   0  0  0  0  0  0  0  0  0  0  0  0
   33.5493   34.3744   24.4093 H   0  0  0  0  0  0  0  0  0  0  0  0
   37.5165   37.4833   21.5392 H   0  0  0  0  0  0  0  0  0  0  0  0
   38.9859   39.3918   21.9934 H   0  0  0  0  0  0  0  0  0  0  0  0
   38.7588   39.1829   23.7467 H   0  0  0  0  0  0  0  0  0  0  0  0
   36.4458   39.9081   23.6013 H   0  0  0  0  0  0  0  0  0  0  0  0
   35.8715   38.9590   21.3834 H   0  0  0  0  0  0  0  0  0  0  0  0
   36.9289   40.1512   20.5902 H   0  0  0  0  0  0  0  0  0  0  0  0
   35.4702   40.6856   21.4626 H   0  0  0  0  0  0  0  0  0  0  0  0
   31.3664   38.7661   24.0828 H   0  0  0  0  0  0  0  0  0  0  0  0
   30.8906   37.9314   22.5810 H   0  0  0  0  0  0  0  0  0  0  0  0
   32.1560   39.4627   21.2231 H   0  0  0  0  0  0  0  0  0  0  0  0
   32.9610   40.1664   22.6467 H   0  0  0  0  0  0  0  0  0  0  0  0
   31.1991   41.6618   21.7969 H   0  0  0  0  0  0  0  0  0  0  0  0
   30.8356   41.0790   23.4351 H   0  0  0  0  0  0  0  0  0  0  0  0
   29.7855   39.5737   19.9448 H   0  0  0  0  0  0  0  0  0  0  0  0
   29.0424   41.2006   20.1047 H   0  0  0  0  0  0  0  0  0  0  0  0
   40.4492   35.3466   19.2370 H   0  0  0  0  0  0  0  0  0  0  0  0
   42.4396   33.9641   18.7770 H   0  0  0  0  0  0  0  0  0  0  0  0
   43.9293   33.2709   20.6358 H   0  0  0  0  0  0  0  0  0  0  0  0
   43.4159   33.9835   22.9591 H   0  0  0  0  0  0  0  0  0  0  0  0
   41.4373   35.3602   23.4180 H   0  0  0  0  0  0  0  0  0  0  0  0
   26.1551   38.6406   23.6257 H   0  0  0  0  0  0  0  0  0  0  0  0
   26.9718   39.2761   18.7472 H   0  0  0  0  0  0  0  0  0  0  0  0
   24.8788   38.2115   19.5476 H   0  0  0  0  0  0  0  0  0  0  0  0
   24.4761   37.8930   21.9579 H   0  0  0  0  0  0  0  0  0  0  0  0
   41.0065   29.4236   30.6534 H   0  0  0  0  0  0  0  0  0  0  0  0
   39.5932   30.5385   28.9646 H   0  0  0  0  0  0  0  0  0  0  0  0
   37.0921   37.4438   24.5008 H   0  0  0  0  0  0  0  0  0  0  0  0
   39.1161   36.4223   20.7011 H   0  0  0  0  0  0  0  0  0  0  0  0
  1 23  1  0  0  0  0
  1  2  1  0  0  0  0
  1 53  1  0  0  0  0
  1 54  1  0  0  0  0
  2 18  1  0  0  0  0
  2  3  1  0  0  0  0
  2 55  1  6  0  0  0
  3 49  2  0  0  0  0
  3 48  1  0  0  0  0
  4 21  1  0  0  0  0
  4 56  1  0  0  0  0
  4 57  1  0  0  0  0
  4 58  1  0  0  0  0
  5 13  1  0  0  0  0
  5 43  2  0  0  0  0
  5  6  1  0  0  0  0
  6 17  2  0  0  0  0
  6 59  1  0  0  0  0
  7 18  1  0  0  0  0
  7 16  1  0  0  0  0
  7  8  1  0  0  0  0
  7 60  1  1  0  0  0
  8  9  1  0  0  0  0
  8 61  1  0  0  0  0
  8 62  1  0  0  0  0
  9 10  1  0  0  0  0
  9 63  1  0  0  0  0
  9 64  1  0  0  0  0
 10 15  2  0  0  0  0
 10 11  1  0  0  0  0
 11 12  2  0  0  0  0
 11 65  1  0  0  0  0
 12 13  1  0  0  0  0
 12 66  1  0  0  0  0
 13 14  2  0  0  0  0
 14 15  1  0  0  0  0
 14 67  1  0  0  0  0
 15 68  1  0  0  0  0
 16 50  2  0  0  0  0
 16 45  1  0  0  0  0
 17 41  1  0  0  0  0
 17 69  1  0  0  0  0
 18 70  1  0  0  0  0
 18 71  1  0  0  0  0
 19 45  1  0  0  0  0
 19 27  1  0  0  0  0
 19 20  1  0  0  0  0
 19 72  1  6  0  0  0
 20 21  1  0  0  0  0
 20 73  1  0  0  0  0
 20 74  1  0  0  0  0
 21 22  1  0  0  0  0
 21 75  1  0  0  0  0
 22 76  1  0  0  0  0
 22 77  1  0  0  0  0
 22 78  1  0  0  0  0
 23 24  1  0  0  0  0
 23 79  1  0  0  0  0
 23 80  1  0  0  0  0
 24 25  1  0  0  0  0
 24 81  1  0  0  0  0
 24 82  1  0  0  0  0
 25 44  1  0  0  0  0
 25 83  1  0  0  0  0
 25 84  1  0  0  0  0
 26 44  1  0  0  0  0
 26 47  2  0  0  0  0
 26 29  1  0  0  0  0
 27 51  2  0  0  0  0
 27 46  1  0  0  0  0
 28 44  1  0  0  0  0
 28 36  1  0  0  0  0
 28 85  1  0  0  0  0
 28 86  1  0  0  0  0
 29 37  2  0  0  0  0
 29 36  1  0  0  0  0
 30 46  1  0  0  0  0
 30 35  2  0  0  0  0
 30 31  1  0  0  0  0
 31 32  2  0  0  0  0
 31 87  1  0  0  0  0
 32 33  1  0  0  0  0
 32 88  1  0  0  0  0
 33 34  2  0  0  0  0
 33 89  1  0  0  0  0
 34 35  1  0  0  0  0
 34 90  1  0  0  0  0
 35 91  1  0  0  0  0
 36 38  2  0  0  0  0
 37 40  1  0  0  0  0
 37 92  1  0  0  0  0
 38 39  1  0  0  0  0
 38 93  1  0  0  0  0
 39 40  2  0  0  0  0
 39 94  1  0  0  0  0
 40 95  1  0  0  0  0
 41 42  2  0  0  0  0
 41 52  1  0  0  0  0
 42 43  1  0  0  0  0
 42 96  1  0  0  0  0
 43 97  1  0  0  0  0
 45 98  1  0  0  0  0
 46 99  1  0  0  0  0
M  END
$$$$
