L75
 OpenBabel04041914103D

 97102  0  0  1  0  0  0  0  0999 V2000
    9.1930   23.9082    2.6890 N   0  0  0  0  0  0  0  0  0  0  0  0
    9.2254   23.8967    4.1609 C   0  0  0  0  0  0  0  0  0  0  0  0
   10.3613   24.7906    4.6453 C   0  0  1  0  0  0  0  0  0  0  0  0
   10.3721   24.8168    6.1751 C   0  0  0  0  0  0  0  0  0  0  0  0
   10.7500   23.8692    6.8011 O   0  0  0  0  0  0  0  0  0  0  0  0
   10.0422   26.0561    6.6851 N   0  0  0  0  0  0  0  0  0  0  0  0
   10.0324   26.3350    8.1290 C   0  0  0  0  0  0  0  0  0  0  0  0
    9.5346   27.7669    8.3407 C   0  0  0  0  0  0  0  0  0  0  0  0
   11.4525   26.2521    8.6940 C   0  0  0  0  0  0  0  0  0  0  0  0
    9.0922   25.3657    8.8565 C   0  0  0  0  0  0  0  0  0  0  0  0
   11.6831   24.2572    4.1098 N   0  3  1  0  0  0  0  0  0  0  0  0
   11.6506   24.1626    2.6053 C   0  0  0  0  0  0  0  0  0  0  0  0
   10.4453   23.3482    2.1576 C   0  0  0  0  0  0  0  0  0  0  0  0
   12.8194   25.0982    4.5752 C   0  0  0  0  0  0  0  0  0  0  0  0
   14.0288   24.2052    4.8309 C   0  0  1  0  0  0  0  0  0  0  0  0
   15.1554   24.8958    4.3323 O   0  0  0  0  0  0  0  0  0  0  0  0
   14.2311   23.9655    6.3122 C   0  0  0  0  0  0  0  0  0  0  0  0
   15.4554   23.1379    6.7163 C   0  0  1  0  0  0  0  0  0  0  0  0
   15.5708   23.1559    8.2585 C   0  0  0  0  0  0  0  0  0  0  0  0
   16.5812   22.1832    8.8223 C   0  0  0  0  0  0  0  0  0  0  0  0
   17.9517   22.3133    8.5335 C   0  0  0  0  0  0  0  0  0  0  0  0
   18.8641   21.4011    9.0665 C   0  0  0  0  0  0  0  0  0  0  0  0
   18.4089   20.3522    9.8720 C   0  0  0  0  0  0  0  0  0  0  0  0
   17.0481   20.1990   10.1477 C   0  0  0  0  0  0  0  0  0  0  0  0
   16.1359   21.1157    9.6270 C   0  0  0  0  0  0  0  0  0  0  0  0
   15.3009   21.7150    6.2462 C   0  0  0  0  0  0  0  0  0  0  0  0
   14.2887   21.0565    6.4640 O   0  0  0  0  0  0  0  0  0  0  0  0
   16.3782   21.2122    5.5758 N   0  0  0  0  0  0  0  0  0  0  0  0
   16.5433   19.7858    5.4438 C   0  0  2  0  0  0  0  0  0  0  0  0
   17.9612   19.3080    5.8539 C   0  0  2  0  0  0  0  0  0  0  0  0
   18.9155   20.2970    5.3756 O   0  0  0  0  0  0  0  0  0  0  0  0
   18.1808   17.9966    5.0754 C   0  0  0  0  0  0  0  0  0  0  0  0
   17.4205   18.2916    3.8147 C   0  0  0  0  0  0  0  0  0  0  0  0
   17.6270   17.7657    2.5554 C   0  0  0  0  0  0  0  0  0  0  0  0
   16.9046   18.2985    1.4894 C   0  0  0  0  0  0  0  0  0  0  0  0
   15.9655   19.3270    1.7029 C   0  0  0  0  0  0  0  0  0  0  0  0
   15.7383   19.8271    2.9819 C   0  0  0  0  0  0  0  0  0  0  0  0
   16.4949   19.3254    4.0154 C   0  0  0  0  0  0  0  0  0  0  0  0
    8.0251   23.1823    2.1757 C   0  0  0  0  0  0  0  0  0  0  0  0
    8.9286   17.2248    2.1842 C   0  0  0  0  0  0  0  0  0  0  0  0
    9.5440   18.4637    1.9400 C   0  0  0  0  0  0  0  0  0  0  0  0
    8.7501   19.6060    2.1519 C   0  0  0  0  0  0  0  0  0  0  0  0
    7.4313   19.5553    2.6052 C   0  0  0  0  0  0  0  0  0  0  0  0
    6.8140   18.3091    2.7780 C   0  0  0  0  0  0  0  0  0  0  0  0
    7.5724   17.1488    2.5639 C   0  0  0  0  0  0  0  0  0  0  0  0
    9.0854   20.9228    1.9665 O   0  0  0  0  0  0  0  0  0  0  0  0
    8.0110   21.6994    2.3613 C   0  0  0  0  0  0  0  0  0  0  0  0
    6.9888   20.8926    2.8229 C   0  0  0  0  0  0  0  0  0  0  0  0
    9.3653   22.8721    4.5298 H   0  0  0  0  0  0  0  0  0  0  0  0
    8.2843   24.2871    4.5575 H   0  0  0  0  0  0  0  0  0  0  0  0
   10.2633   25.8034    4.2427 H   0  0  0  0  0  0  0  0  0  0  0  0
    9.7785   26.8028    6.0588 H   0  0  0  0  0  0  0  0  0  0  0  0
    9.5172   28.0162    9.4080 H   0  0  0  0  0  0  0  0  0  0  0  0
    8.5232   27.8809    7.9367 H   0  0  0  0  0  0  0  0  0  0  0  0
   10.1914   28.4817    7.8285 H   0  0  0  0  0  0  0  0  0  0  0  0
   11.4548   26.4659    9.7691 H   0  0  0  0  0  0  0  0  0  0  0  0
   12.1066   26.9814    8.1963 H   0  0  0  0  0  0  0  0  0  0  0  0
   11.8780   25.2561    8.5398 H   0  0  0  0  0  0  0  0  0  0  0  0
    9.0746   25.5632    9.9347 H   0  0  0  0  0  0  0  0  0  0  0  0
    9.4044   24.3252    8.7142 H   0  0  0  0  0  0  0  0  0  0  0  0
    8.0679   25.4609    8.4724 H   0  0  0  0  0  0  0  0  0  0  0  0
   12.5908   23.7045    2.2930 H   0  0  0  0  0  0  0  0  0  0  0  0
   11.5897   25.1885    2.2308 H   0  0  0  0  0  0  0  0  0  0  0  0
   10.4160   23.3404    1.0664 H   0  0  0  0  0  0  0  0  0  0  0  0
   10.5863   22.3272    2.5215 H   0  0  0  0  0  0  0  0  0  0  0  0
   12.5272   25.6397    5.4770 H   0  0  0  0  0  0  0  0  0  0  0  0
   13.0193   25.8271    3.7840 H   0  0  0  0  0  0  0  0  0  0  0  0
   13.9018   23.2546    4.2982 H   0  0  0  0  0  0  0  0  0  0  0  0
   15.0196   25.0818    3.3894 H   0  0  0  0  0  0  0  0  0  0  0  0
   13.3339   23.4701    6.6867 H   0  0  0  0  0  0  0  0  0  0  0  0
   14.3360   24.9495    6.7811 H   0  0  0  0  0  0  0  0  0  0  0  0
   16.3699   23.5725    6.3026 H   0  0  0  0  0  0  0  0  0  0  0  0
   14.5809   22.9473    8.6978 H   0  0  0  0  0  0  0  0  0  0  0  0
   15.8456   24.1754    8.5757 H   0  0  0  0  0  0  0  0  0  0  0  0
   18.3177   23.1188    7.8972 H   0  0  0  0  0  0  0  0  0  0  0  0
   19.9303   21.5017    8.8604 H   0  0  0  0  0  0  0  0  0  0  0  0
   19.1193   19.6466   10.2901 H   0  0  0  0  0  0  0  0  0  0  0  0
   16.7068   19.3710   10.7698 H   0  0  0  0  0  0  0  0  0  0  0  0
   15.0749   20.9938    9.8498 H   0  0  0  0  0  0  0  0  0  0  0  0
   17.1072   21.8223    5.2243 H   0  0  0  0  0  0  0  0  0  0  0  0
   15.7683   19.2421    5.9882 H   0  0  0  0  0  0  0  0  0  0  0  0
   18.0822   19.2082    6.9421 H   0  0  0  0  0  0  0  0  0  0  0  0
   19.8040   19.9159    5.4608 H   0  0  0  0  0  0  0  0  0  0  0  0
   17.7605   17.1392    5.6056 H   0  0  0  0  0  0  0  0  0  0  0  0
   19.2315   17.8278    4.8365 H   0  0  0  0  0  0  0  0  0  0  0  0
   18.3743   16.9945    2.3985 H   0  0  0  0  0  0  0  0  0  0  0  0
   17.0658   17.9134    0.4864 H   0  0  0  0  0  0  0  0  0  0  0  0
   15.4152   19.7366    0.8684 H   0  0  0  0  0  0  0  0  0  0  0  0
   15.0044   20.6038    3.1741 H   0  0  0  0  0  0  0  0  0  0  0  0
    7.9065   23.4141    1.1087 H   0  0  0  0  0  0  0  0  0  0  0  0
    7.1280   23.5912    2.6734 H   0  0  0  0  0  0  0  0  0  0  0  0
    9.5032   16.3030    2.0700 H   0  0  0  0  0  0  0  0  0  0  0  0
   10.5879   18.5501    1.6235 H   0  0  0  0  0  0  0  0  0  0  0  0
    5.7694   18.2769    3.0777 H   0  0  0  0  0  0  0  0  0  0  0  0
    7.0894   16.1806    2.7037 H   0  0  0  0  0  0  0  0  0  0  0  0
    6.0221   21.2073    3.2109 H   0  0  0  0  0  0  0  0  0  0  0  0
   11.7855   23.3055    4.5067 H   0  0  0  0  0  0  0  0  0  0  0  0
  1 39  1  0  0  0  0
  1 13  1  0  0  0  0
  1  2  1  0  0  0  0
  2  3  1  0  0  0  0
  2 49  1  0  0  0  0
  2 50  1  0  0  0  0
  3 11  1  0  0  0  0
  3  4  1  0  0  0  0
  3 51  1  6  0  0  0
  4  6  1  0  0  0  0
  4  5  2  0  0  0  0
  6  7  1  0  0  0  0
  6 52  1  0  0  0  0
  7 10  1  0  0  0  0
  7  9  1  0  0  0  0
  7  8  1  0  0  0  0
  8 53  1  0  0  0  0
  8 54  1  0  0  0  0
  8 55  1  0  0  0  0
  9 56  1  0  0  0  0
  9 57  1  0  0  0  0
  9 58  1  0  0  0  0
 10 59  1  0  0  0  0
 10 60  1  0  0  0  0
 10 61  1  0  0  0  0
 11 14  1  0  0  0  0
 11 12  1  0  0  0  0
 11 97  1  1  0  0  0
 12 13  1  0  0  0  0
 12 62  1  0  0  0  0
 12 63  1  0  0  0  0
 13 64  1  0  0  0  0
 13 65  1  0  0  0  0
 14 15  1  0  0  0  0
 14 66  1  0  0  0  0
 14 67  1  0  0  0  0
 15 17  1  0  0  0  0
 15 16  1  0  0  0  0
 15 68  1  6  0  0  0
 16 69  1  0  0  0  0
 17 18  1  0  0  0  0
 17 70  1  0  0  0  0
 17 71  1  0  0  0  0
 18 26  1  0  0  0  0
 18 19  1  0  0  0  0
 18 72  1  6  0  0  0
 19 20  1  0  0  0  0
 19 73  1  0  0  0  0
 19 74  1  0  0  0  0
 20 25  2  0  0  0  0
 20 21  1  0  0  0  0
 21 22  2  0  0  0  0
 21 75  1  0  0  0  0
 22 23  1  0  0  0  0
 22 76  1  0  0  0  0
 23 24  2  0  0  0  0
 23 77  1  0  0  0  0
 24 25  1  0  0  0  0
 24 78  1  0  0  0  0
 25 79  1  0  0  0  0
 26 28  1  0  0  0  0
 26 27  2  0  0  0  0
 28 29  1  0  0  0  0
 28 80  1  0  0  0  0
 29 38  1  0  0  0  0
 29 30  1  0  0  0  0
 29 81  1  1  0  0  0
 30 32  1  0  0  0  0
 30 31  1  0  0  0  0
 30 82  1  1  0  0  0
 31 83  1  0  0  0  0
 32 33  1  0  0  0  0
 32 84  1  0  0  0  0
 32 85  1  0  0  0  0
 33 38  2  0  0  0  0
 33 34  1  0  0  0  0
 34 35  2  0  0  0  0
 34 86  1  0  0  0  0
 35 36  1  0  0  0  0
 35 87  1  0  0  0  0
 36 37  2  0  0  0  0
 36 88  1  0  0  0  0
 37 38  1  0  0  0  0
 37 89  1  0  0  0  0
 39 47  1  0  0  0  0
 39 90  1  0  0  0  0
 39 91  1  0  0  0  0
 40 41  2  0  0  0  0
 40 45  1  0  0  0  0
 40 92  1  0  0  0  0
 41 42  1  0  0  0  0
 41 93  1  0  0  0  0
 42 46  1  0  0  0  0
 42 43  2  0  0  0  0
 43 44  1  0  0  0  0
 43 48  1  0  0  0  0
 44 45  2  0  0  0  0
 44 94  1  0  0  0  0
 45 95  1  0  0  0  0
 46 47  1  0  0  0  0
 47 48  2  0  0  0  0
 48 96  1  0  0  0  0
M  CHG  1  11   1
M  END
$$$$
