LEU
 OpenBabel04041915273D

 22 21  0  0  1  0  0  0  0  0999 V2000
   62.3676   53.7066   16.4226 N   0  3  0  0  0  0  0  0  0  0  0  0
   63.4090   54.0137   17.4826 C   0  0  2  0  0  0  0  0  0  0  0  0
   64.7194   53.3221   17.0010 C   0  0  0  0  0  0  0  0  0  0  0  0
   65.1956   53.8796   15.9675 O   0  0  0  0  0  0  0  0  0  0  0  0
   62.8873   53.6104   18.8563 C   0  0  0  0  0  0  0  0  0  0  0  0
   61.4835   54.1318   19.2435 C   0  0  0  0  0  0  0  0  0  0  0  0
   61.2073   53.8594   20.7276 C   0  0  0  0  0  0  0  0  0  0  0  0
   61.2635   55.6112   18.9560 C   0  0  0  0  0  0  0  0  0  0  0  0
   64.9120   52.1643   17.4741 O   0  0  0  0  0  0  0  0  0  0  0  0
   61.4580   54.1477   16.5416 H   0  0  0  0  0  0  0  0  0  0  0  0
   62.8107   53.9971   15.5330 H   0  0  0  0  0  0  0  0  0  0  0  0
   63.5657   55.1023   17.4371 H   0  0  0  0  0  0  0  0  0  0  0  0
   63.6195   53.9526   19.6072 H   0  0  0  0  0  0  0  0  0  0  0  0
   62.8716   52.5188   18.9480 H   0  0  0  0  0  0  0  0  0  0  0  0
   60.7419   53.5610   18.6673 H   0  0  0  0  0  0  0  0  0  0  0  0
   60.2153   54.2260   21.0136 H   0  0  0  0  0  0  0  0  0  0  0  0
   61.9444   54.3625   21.3667 H   0  0  0  0  0  0  0  0  0  0  0  0
   61.2449   52.7877   20.9457 H   0  0  0  0  0  0  0  0  0  0  0  0
   61.4357   55.8659   17.9056 H   0  0  0  0  0  0  0  0  0  0  0  0
   61.9131   56.2455   19.5681 H   0  0  0  0  0  0  0  0  0  0  0  0
   60.2217   55.8914   19.1720 H   0  0  0  0  0  0  0  0  0  0  0  0
   62.2995   52.6843   16.3673 H   0  0  0  0  0  0  0  0  0  0  0  0
  1  2  1  0  0  0  0
  1 10  1  0  0  0  0
  1 11  1  0  0  0  0
  1 22  1  0  0  0  0
  2  3  1  0  0  0  0
  2  5  1  0  0  0  0
  2 12  1  1  0  0  0
  3  9  2  0  0  0  0
  3  4  1  0  0  0  0
  5  6  1  0  0  0  0
  5 13  1  0  0  0  0
  5 14  1  0  0  0  0
  6  8  1  0  0  0  0
  6  7  1  0  0  0  0
  6 15  1  0  0  0  0
  7 16  1  0  0  0  0
  7 17  1  0  0  0  0
  7 18  1  0  0  0  0
  8 19  1  0  0  0  0
  8 20  1  0  0  0  0
  8 21  1  0  0  0  0
M  CHG  1   1   1
M  END
$$$$
