LPR
 OpenBabel04041915083D

 58 59  0  0  1  0  0  0  0  0999 V2000
   12.6098   -2.9814   16.6910 O   0  0  0  0  0  0  0  0  0  0  0  0
    8.9787   -3.7204   18.9613 O   0  0  0  0  0  0  0  0  0  0  0  0
    8.5479   -5.5893   17.6948 O   0  0  0  0  0  0  0  0  0  0  0  0
   15.2644   -1.0791   18.1374 O   0  0  0  0  0  0  0  0  0  0  0  0
   15.7282   -3.2869   17.7523 O   0  0  0  0  0  0  0  0  0  0  0  0
   10.6549   -4.7440   16.0454 N   0  3  0  0  0  0  0  0  0  0  0  0
   13.1236   -3.9323   18.7188 N   0  0  0  0  0  0  0  0  0  0  0  0
   17.3089   -6.5476   15.0807 N   0  3  0  0  0  0  0  0  0  0  0  0
   12.5490   -3.9317   17.4802 C   0  0  0  0  0  0  0  0  0  0  0  0
   11.8051   -5.1772   16.9828 C   0  0  2  0  0  0  0  0  0  0  0  0
    8.9092   -4.3874   17.9067 C   0  0  0  0  0  0  0  0  0  0  0  0
    9.6046   -3.7639   16.6659 C   0  0  2  0  0  0  0  0  0  0  0  0
   13.8507   -2.7275   19.1577 C   0  0  1  0  0  0  0  0  0  0  0  0
   14.3092   -3.1338   20.5355 C   0  0  0  0  0  0  0  0  0  0  0  0
   13.9010   -4.3700   20.8412 C   0  0  0  0  0  0  0  0  0  0  0  0
   13.1228   -4.9737   19.7363 C   0  0  0  0  0  0  0  0  0  0  0  0
   15.0755   -2.3232   18.2687 C   0  0  0  0  0  0  0  0  0  0  0  0
   12.7534   -6.0235   16.0822 C   0  0  0  0  0  0  0  0  0  0  0  0
   13.9126   -6.7361   16.7902 C   0  0  0  0  0  0  0  0  0  0  0  0
   15.3064   -6.1904   16.4562 C   0  0  0  0  0  0  0  0  0  0  0  0
   15.8830   -6.8967   15.2451 C   0  0  0  0  0  0  0  0  0  0  0  0
    8.6012   -3.4663   15.5338 C   0  0  0  0  0  0  0  0  0  0  0  0
    7.4985   -2.4576   15.9111 C   0  0  0  0  0  0  0  0  0  0  0  0
    6.5030   -2.1220   14.8101 C   0  0  0  0  0  0  0  0  0  0  0  0
    6.5097   -2.7516   13.5542 C   0  0  0  0  0  0  0  0  0  0  0  0
    5.5659   -2.4287   12.5783 C   0  0  0  0  0  0  0  0  0  0  0  0
    4.6006   -1.4569   12.8382 C   0  0  0  0  0  0  0  0  0  0  0  0
    4.5682   -0.8297   14.0713 C   0  0  0  0  0  0  0  0  0  0  0  0
    5.5121   -1.1527   15.0509 C   0  0  0  0  0  0  0  0  0  0  0  0
   10.1031   -5.5727   15.7960 H   0  0  0  0  0  0  0  0  0  0  0  0
   17.7197   -7.0154   14.2652 H   0  0  0  0  0  0  0  0  0  0  0  0
   17.4290   -5.5285   14.9689 H   0  0  0  0  0  0  0  0  0  0  0  0
   11.3606   -5.7766   17.7863 H   0  0  0  0  0  0  0  0  0  0  0  0
   10.1383   -2.8490   16.9293 H   0  0  0  0  0  0  0  0  0  0  0  0
   13.1316   -1.9009   19.2293 H   0  0  0  0  0  0  0  0  0  0  0  0
   14.8974   -2.5003   21.1711 H   0  0  0  0  0  0  0  0  0  0  0  0
   14.1479   -4.9058   21.7514 H   0  0  0  0  0  0  0  0  0  0  0  0
   12.1042   -5.2526   20.0098 H   0  0  0  0  0  0  0  0  0  0  0  0
   13.6667   -5.8453   19.4116 H   0  0  0  0  0  0  0  0  0  0  0  0
   13.1583   -5.3882   15.2813 H   0  0  0  0  0  0  0  0  0  0  0  0
   12.1600   -6.8017   15.5863 H   0  0  0  0  0  0  0  0  0  0  0  0
   13.8751   -7.8075   16.5613 H   0  0  0  0  0  0  0  0  0  0  0  0
   13.7676   -6.7097   17.8571 H   0  0  0  0  0  0  0  0  0  0  0  0
   15.9714   -6.3426   17.3169 H   0  0  0  0  0  0  0  0  0  0  0  0
   15.2735   -5.1151   16.2612 H   0  0  0  0  0  0  0  0  0  0  0  0
   15.3664   -6.6010   14.3278 H   0  0  0  0  0  0  0  0  0  0  0  0
   15.8389   -7.9841   15.3594 H   0  0  0  0  0  0  0  0  0  0  0  0
    9.1540   -3.0666   14.6715 H   0  0  0  0  0  0  0  0  0  0  0  0
    8.1325   -4.4020   15.2023 H   0  0  0  0  0  0  0  0  0  0  0  0
    7.9760   -1.5217   16.2288 H   0  0  0  0  0  0  0  0  0  0  0  0
    6.9294   -2.8514   16.7605 H   0  0  0  0  0  0  0  0  0  0  0  0
    7.2411   -3.5120   13.3124 H   0  0  0  0  0  0  0  0  0  0  0  0
    5.5837   -2.9331   11.6135 H   0  0  0  0  0  0  0  0  0  0  0  0
    3.8584   -1.2180   12.0777 H   0  0  0  0  0  0  0  0  0  0  0  0
    3.8061   -0.0763   14.2770 H   0  0  0  0  0  0  0  0  0  0  0  0
    5.4678   -0.6438   16.0150 H   0  0  0  0  0  0  0  0  0  0  0  0
   11.0642   -4.2610   15.2415 H   0  0  0  0  0  0  0  0  0  0  0  0
   17.8586   -6.8078   15.9105 H   0  0  0  0  0  0  0  0  0  0  0  0
  1  9  2  0  0  0  0
  2 11  1  0  0  0  0
  3 11  2  0  0  0  0
  4 17  1  0  0  0  0
  5 17  2  0  0  0  0
  6 12  1  0  0  0  0
  6 10  1  0  0  0  0
  6 30  1  0  0  0  0
  6 57  1  0  0  0  0
  7 16  1  0  0  0  0
  7 13  1  0  0  0  0
  7  9  1  0  0  0  0
  8 21  1  0  0  0  0
  8 31  1  0  0  0  0
  8 32  1  0  0  0  0
  8 58  1  0  0  0  0
  9 10  1  0  0  0  0
 10 18  1  0  0  0  0
 10 33  1  1  0  0  0
 11 12  1  0  0  0  0
 12 22  1  0  0  0  0
 12 34  1  1  0  0  0
 13 14  1  0  0  0  0
 13 17  1  0  0  0  0
 13 35  1  1  0  0  0
 14 15  2  0  0  0  0
 14 36  1  0  0  0  0
 15 16  1  0  0  0  0
 15 37  1  0  0  0  0
 16 38  1  0  0  0  0
 16 39  1  0  0  0  0
 18 19  1  0  0  0  0
 18 40  1  0  0  0  0
 18 41  1  0  0  0  0
 19 20  1  0  0  0  0
 19 42  1  0  0  0  0
 19 43  1  0  0  0  0
 20 21  1  0  0  0  0
 20 44  1  0  0  0  0
 20 45  1  0  0  0  0
 21 46  1  0  0  0  0
 21 47  1  0  0  0  0
 22 23  1  0  0  0  0
 22 48  1  0  0  0  0
 22 49  1  0  0  0  0
 23 24  1  0  0  0  0
 23 50  1  0  0  0  0
 23 51  1  0  0  0  0
 24 25  2  0  0  0  0
 24 29  1  0  0  0  0
 25 26  1  0  0  0  0
 25 52  1  0  0  0  0
 26 27  2  0  0  0  0
 26 53  1  0  0  0  0
 27 28  1  0  0  0  0
 27 54  1  0  0  0  0
 28 29  2  0  0  0  0
 28 55  1  0  0  0  0
 29 56  1  0  0  0  0
M  CHG  2   6   1   8   1
M  END
$$$$
