LPR
 OpenBabel04041916073D

 60 61  0  0  1  0  0  0  0  0999 V2000
   40.3287   33.7364   45.1408 O   0  0  0  0  0  0  0  0  0  0  0  0
   43.3726   36.0979   48.2570 O   0  0  0  0  0  0  0  0  0  0  0  0
   41.9360   37.3863   46.9794 O   0  0  0  0  0  0  0  0  0  0  0  0
   38.8377   33.3766   41.8482 O   0  0  0  0  0  0  0  0  0  0  0  0
   40.7770   32.2529   42.3418 O   0  0  0  0  0  0  0  0  0  0  0  0
   41.9381   33.9130   47.3014 N   0  3  0  0  0  0  0  0  0  0  0  0
   41.8081   34.5569   43.5990 N   0  0  0  0  0  0  0  0  0  0  0  0
   43.3015   27.7971   44.1002 N   0  3  0  0  0  0  0  0  0  0  0  0
   41.4796   34.0617   44.8306 C   0  0  0  0  0  0  0  0  0  0  0  0
   42.5738   33.8587   45.8993 C   0  0  2  0  0  0  0  0  0  0  0  0
   42.3004   36.3599   47.6891 C   0  0  0  0  0  0  0  0  0  0  0  0
   41.2665   35.2618   47.6152 C   0  0  2  0  0  0  0  0  0  0  0  0
   40.7421   34.6544   42.5726 C   0  0  1  0  0  0  0  0  0  0  0  0
   41.4275   35.2142   41.3372 C   0  0  0  0  0  0  0  0  0  0  0  0
   42.8956   35.3866   41.6627 C   0  0  0  0  0  0  0  0  0  0  0  0
   43.1108   34.9461   43.0902 C   0  0  0  0  0  0  0  0  0  0  0  0
   40.0470   33.2951   42.2203 C   0  0  0  0  0  0  0  0  0  0  0  0
   43.2989   32.4933   45.7747 C   0  0  0  0  0  0  0  0  0  0  0  0
   42.4663   31.2353   45.5280 C   0  0  0  0  0  0  0  0  0  0  0  0
   43.3045   30.1202   44.8643 C   0  0  0  0  0  0  0  0  0  0  0  0
   42.4484   28.8955   44.6307 C   0  0  0  0  0  0  0  0  0  0  0  0
   40.6110   35.3135   49.0061 C   0  0  0  0  0  0  0  0  0  0  0  0
   39.4095   36.3013   49.1538 C   0  0  0  0  0  0  0  0  0  0  0  0
   38.8484   36.3993   50.5785 C   0  0  0  0  0  0  0  0  0  0  0  0
   38.5602   35.2529   51.3431 C   0  0  0  0  0  0  0  0  0  0  0  0
   38.0243   35.3639   52.6328 C   0  0  0  0  0  0  0  0  0  0  0  0
   37.7571   36.6232   53.1716 C   0  0  0  0  0  0  0  0  0  0  0  0
   38.0224   37.7728   52.4263 C   0  0  0  0  0  0  0  0  0  0  0  0
   38.5598   37.6611   51.1371 C   0  0  0  0  0  0  0  0  0  0  0  0
   42.6701   33.8351   48.0294 H   0  0  0  0  0  0  0  0  0  0  0  0
   42.7439   26.9519   43.9317 H   0  0  0  0  0  0  0  0  0  0  0  0
   43.7305   28.0619   43.2011 H   0  0  0  0  0  0  0  0  0  0  0  0
   43.3480   34.6355   45.8518 H   0  0  0  0  0  0  0  0  0  0  0  0
   40.4821   35.3238   46.8592 H   0  0  0  0  0  0  0  0  0  0  0  0
   39.9739   35.3596   42.9143 H   0  0  0  0  0  0  0  0  0  0  0  0
   41.0437   36.2026   41.0574 H   0  0  0  0  0  0  0  0  0  0  0  0
   41.3545   34.5503   40.4727 H   0  0  0  0  0  0  0  0  0  0  0  0
   43.1658   36.4388   41.5420 H   0  0  0  0  0  0  0  0  0  0  0  0
   43.4766   34.7686   40.9743 H   0  0  0  0  0  0  0  0  0  0  0  0
   43.5302   35.7713   43.6766 H   0  0  0  0  0  0  0  0  0  0  0  0
   43.8245   34.1121   43.1139 H   0  0  0  0  0  0  0  0  0  0  0  0
   43.8650   32.3093   46.6986 H   0  0  0  0  0  0  0  0  0  0  0  0
   43.9990   32.5772   44.9461 H   0  0  0  0  0  0  0  0  0  0  0  0
   41.6170   31.4671   44.8836 H   0  0  0  0  0  0  0  0  0  0  0  0
   42.0791   30.8728   46.4882 H   0  0  0  0  0  0  0  0  0  0  0  0
   44.1583   29.8343   45.4914 H   0  0  0  0  0  0  0  0  0  0  0  0
   43.6929   30.4443   43.8898 H   0  0  0  0  0  0  0  0  0  0  0  0
   41.6677   29.0962   43.8913 H   0  0  0  0  0  0  0  0  0  0  0  0
   42.0228   28.5419   45.5757 H   0  0  0  0  0  0  0  0  0  0  0  0
   40.2562   34.3289   49.3023 H   0  0  0  0  0  0  0  0  0  0  0  0
   41.3560   35.6797   49.7206 H   0  0  0  0  0  0  0  0  0  0  0  0
   38.5888   35.9833   48.4908 H   0  0  0  0  0  0  0  0  0  0  0  0
   39.7241   37.3081   48.8369 H   0  0  0  0  0  0  0  0  0  0  0  0
   38.7529   34.2578   50.9377 H   0  0  0  0  0  0  0  0  0  0  0  0
   37.8152   34.4614   53.2160 H   0  0  0  0  0  0  0  0  0  0  0  0
   37.3377   36.7096   54.1783 H   0  0  0  0  0  0  0  0  0  0  0  0
   37.8131   38.7622   52.8466 H   0  0  0  0  0  0  0  0  0  0  0  0
   38.7635   38.5720   50.5620 H   0  0  0  0  0  0  0  0  0  0  0  0
   41.1617   33.2348   47.3072 H   0  0  0  0  0  0  0  0  0  0  0  0
   44.0630   27.5496   44.7475 H   0  0  0  0  0  0  0  0  0  0  0  0
  1  9  2  0  0  0  0
  2 11  1  0  0  0  0
  3 11  2  0  0  0  0
  4 17  1  0  0  0  0
  5 17  2  0  0  0  0
  6 12  1  0  0  0  0
  6 10  1  0  0  0  0
  6 30  1  0  0  0  0
  6 59  1  0  0  0  0
  7 16  1  0  0  0  0
  7 13  1  0  0  0  0
  7  9  1  0  0  0  0
  8 21  1  0  0  0  0
  8 31  1  0  0  0  0
  8 32  1  0  0  0  0
  8 60  1  0  0  0  0
  9 10  1  0  0  0  0
 10 18  1  0  0  0  0
 10 33  1  6  0  0  0
 11 12  1  0  0  0  0
 12 22  1  0  0  0  0
 12 34  1  6  0  0  0
 13 14  1  0  0  0  0
 13 17  1  0  0  0  0
 13 35  1  1  0  0  0
 14 15  1  0  0  0  0
 14 36  1  0  0  0  0
 14 37  1  0  0  0  0
 15 16  1  0  0  0  0
 15 38  1  0  0  0  0
 15 39  1  0  0  0  0
 16 40  1  0  0  0  0
 16 41  1  0  0  0  0
 18 19  1  0  0  0  0
 18 42  1  0  0  0  0
 18 43  1  0  0  0  0
 19 20  1  0  0  0  0
 19 44  1  0  0  0  0
 19 45  1  0  0  0  0
 20 21  1  0  0  0  0
 20 46  1  0  0  0  0
 20 47  1  0  0  0  0
 21 48  1  0  0  0  0
 21 49  1  0  0  0  0
 22 23  1  0  0  0  0
 22 50  1  0  0  0  0
 22 51  1  0  0  0  0
 23 24  1  0  0  0  0
 23 52  1  0  0  0  0
 23 53  1  0  0  0  0
 24 25  2  0  0  0  0
 24 29  1  0  0  0  0
 25 26  1  0  0  0  0
 25 54  1  0  0  0  0
 26 27  2  0  0  0  0
 26 55  1  0  0  0  0
 27 28  1  0  0  0  0
 27 56  1  0  0  0  0
 28 29  2  0  0  0  0
 28 57  1  0  0  0  0
 29 58  1  0  0  0  0
M  CHG  2   6   1   8   1
M  END
$$$$
