LYS
 OpenBabel04041915353D

 25 24  0  0  1  0  0  0  0  0999 V2000
   18.6272   58.2115   45.6998 N   0  3  0  0  0  0  0  0  0  0  0  0
   18.6955   57.4469   47.0059 C   0  0  2  0  0  0  0  0  0  0  0  0
   18.1402   58.2929   48.1861 C   0  0  0  0  0  0  0  0  0  0  0  0
   18.1352   57.7586   49.3113 O   0  0  0  0  0  0  0  0  0  0  0  0
   20.1454   57.0554   47.2821 C   0  0  0  0  0  0  0  0  0  0  0  0
   21.1423   58.2190   47.2596 C   0  0  0  0  0  0  0  0  0  0  0  0
   22.4713   57.7797   47.8645 C   0  0  0  0  0  0  0  0  0  0  0  0
   23.5236   58.8530   47.6634 C   0  0  0  0  0  0  0  0  0  0  0  0
   24.7604   58.4523   48.3631 N   0  3  0  0  0  0  0  0  0  0  0  0
   17.8603   59.4661   47.7815 O   0  0  0  0  0  0  0  0  0  0  0  0
   18.9833   57.7308   44.8808 H   0  0  0  0  0  0  0  0  0  0  0  0
   17.6391   58.4830   45.5904 H   0  0  0  0  0  0  0  0  0  0  0  0
   18.0740   56.5579   46.8705 H   0  0  0  0  0  0  0  0  0  0  0  0
   20.4654   56.3178   46.5334 H   0  0  0  0  0  0  0  0  0  0  0  0
   20.2058   56.5499   48.2552 H   0  0  0  0  0  0  0  0  0  0  0  0
   20.7617   59.0809   47.8206 H   0  0  0  0  0  0  0  0  0  0  0  0
   21.2989   58.5538   46.2247 H   0  0  0  0  0  0  0  0  0  0  0  0
   22.8000   56.8415   47.4019 H   0  0  0  0  0  0  0  0  0  0  0  0
   22.3284   57.5799   48.9338 H   0  0  0  0  0  0  0  0  0  0  0  0
   23.2146   59.8170   48.0769 H   0  0  0  0  0  0  0  0  0  0  0  0
   23.7748   58.9697   46.6039 H   0  0  0  0  0  0  0  0  0  0  0  0
   25.4987   59.1591   48.2422 H   0  0  0  0  0  0  0  0  0  0  0  0
   24.5986   58.3517   49.3752 H   0  0  0  0  0  0  0  0  0  0  0  0
   19.0635   59.1324   45.8773 H   0  0  0  0  0  0  0  0  0  0  0  0
   25.1284   57.5557   48.0169 H   0  0  0  0  0  0  0  0  0  0  0  0
  1  2  1  0  0  0  0
  1 11  1  0  0  0  0
  1 12  1  0  0  0  0
  1 24  1  0  0  0  0
  2  3  1  0  0  0  0
  2  5  1  0  0  0  0
  2 13  1  6  0  0  0
  3  4  2  0  0  0  0
  3 10  1  0  0  0  0
  5  6  1  0  0  0  0
  5 14  1  0  0  0  0
  5 15  1  0  0  0  0
  6  7  1  0  0  0  0
  6 16  1  0  0  0  0
  6 17  1  0  0  0  0
  7  8  1  0  0  0  0
  7 18  1  0  0  0  0
  7 19  1  0  0  0  0
  8  9  1  0  0  0  0
  8 20  1  0  0  0  0
  8 21  1  0  0  0  0
  9 22  1  0  0  0  0
  9 23  1  0  0  0  0
  9 25  1  0  0  0  0
M  CHG  2   1   1   9   1
M  END
$$$$
