M77
 OpenBabel04041916333D

 38 40  0  0  0  0  0  0  0  0999 V2000
   26.9459   26.8849    9.3204 O   0  0  0  0  0  0  0  0  0  0  0  0
   27.1802   25.8263    8.3860 S   0  0  0  0  0  0  0  0  0  0  0  0
   27.9734   26.0310    7.1946 O   0  0  0  0  0  0  0  0  0  0  0  0
   27.9772   24.6375    9.3002 N   0  0  0  0  0  0  0  0  0  0  0  0
   27.4158   24.2734   10.6236 C   0  0  0  0  0  0  0  0  0  0  0  0
   28.4713   24.0198   11.7038 C   0  0  0  0  0  0  0  0  0  0  0  0
   29.7254   24.8182   11.4494 N   0  3  0  0  0  0  0  0  0  0  0  0
   30.6560   24.1736   10.4516 C   0  0  0  0  0  0  0  0  0  0  0  0
   30.3229   24.5677    9.0236 C   0  0  0  0  0  0  0  0  0  0  0  0
   29.0317   23.8891    8.6089 C   0  0  0  0  0  0  0  0  0  0  0  0
   25.6913   24.9014    7.9459 C   0  0  0  0  0  0  0  0  0  0  0  0
   25.7622   23.4976    7.8407 C   0  0  0  0  0  0  0  0  0  0  0  0
   24.6299   22.7368    7.5247 C   0  0  0  0  0  0  0  0  0  0  0  0
   23.4182   23.3738    7.3238 C   0  0  0  0  0  0  0  0  0  0  0  0
   23.3334   24.7748    7.4117 C   0  0  0  0  0  0  0  0  0  0  0  0
   24.4799   25.5552    7.7375 C   0  0  0  0  0  0  0  0  0  0  0  0
   24.3245   26.9436    7.8059 C   0  0  0  0  0  0  0  0  0  0  0  0
   22.1457   25.4431    7.1802 C   0  0  0  0  0  0  0  0  0  0  0  0
   21.9896   26.7910    7.2763 N   0  0  0  0  0  0  0  0  0  0  0  0
   23.0932   27.5107    7.5821 C   0  0  0  0  0  0  0  0  0  0  0  0
   26.7718   23.3936   10.5623 H   0  0  0  0  0  0  0  0  0  0  0  0
   26.8006   25.1126   10.9756 H   0  0  0  0  0  0  0  0  0  0  0  0
   28.7531   22.9598   11.7181 H   0  0  0  0  0  0  0  0  0  0  0  0
   28.0825   24.2789   12.6952 H   0  0  0  0  0  0  0  0  0  0  0  0
   29.4494   25.7601   11.1197 H   0  0  0  0  0  0  0  0  0  0  0  0
   30.5615   23.0896   10.5753 H   0  0  0  0  0  0  0  0  0  0  0  0
   31.6736   24.4718   10.7044 H   0  0  0  0  0  0  0  0  0  0  0  0
   31.1377   24.2541    8.3622 H   0  0  0  0  0  0  0  0  0  0  0  0
   30.2301   25.6602    8.9408 H   0  0  0  0  0  0  0  0  0  0  0  0
   28.9167   23.9347    7.5119 H   0  0  0  0  0  0  0  0  0  0  0  0
   29.0216   22.8297    8.8722 H   0  0  0  0  0  0  0  0  0  0  0  0
   26.6989   22.9650    8.0022 H   0  0  0  0  0  0  0  0  0  0  0  0
   24.6874   21.6552    7.4208 H   0  0  0  0  0  0  0  0  0  0  0  0
   22.5201   22.7842    7.0956 H   0  0  0  0  0  0  0  0  0  0  0  0
   25.1513   27.6027    8.0321 H   0  0  0  0  0  0  0  0  0  0  0  0
   21.2508   24.8924    6.8816 H   0  0  0  0  0  0  0  0  0  0  0  0
   22.9722   28.5939    7.6325 H   0  0  0  0  0  0  0  0  0  0  0  0
   30.2191   24.9701   12.3447 H   0  0  0  0  0  0  0  0  0  0  0  0
  1  2  2  0  0  0  0
  2  3  2  0  0  0  0
  2  4  1  0  0  0  0
  2 11  1  0  0  0  0
  4  5  1  0  0  0  0
  4 10  1  0  0  0  0
  5  6  1  0  0  0  0
  5 21  1  0  0  0  0
  5 22  1  0  0  0  0
  6  7  1  0  0  0  0
  6 23  1  0  0  0  0
  6 24  1  0  0  0  0
  7  8  1  0  0  0  0
  7 25  1  0  0  0  0
  7 38  1  0  0  0  0
  8  9  1  0  0  0  0
  8 26  1  0  0  0  0
  8 27  1  0  0  0  0
  9 10  1  0  0  0  0
  9 28  1  0  0  0  0
  9 29  1  0  0  0  0
 10 30  1  0  0  0  0
 10 31  1  0  0  0  0
 11 12  2  0  0  0  0
 11 16  1  0  0  0  0
 12 13  1  0  0  0  0
 12 32  1  0  0  0  0
 13 14  2  0  0  0  0
 13 33  1  0  0  0  0
 14 15  1  0  0  0  0
 14 34  1  0  0  0  0
 15 16  2  0  0  0  0
 15 18  1  0  0  0  0
 16 17  1  0  0  0  0
 17 20  2  0  0  0  0
 17 35  1  0  0  0  0
 18 19  2  0  0  0  0
 18 36  1  0  0  0  0
 19 20  1  0  0  0  0
 20 37  1  0  0  0  0
M  CHG  1   7   1
M  END
$$$$
