MC9
 OpenBabel04041916473D

 70 73  0  0  1  0  0  0  0  0999 V2000
   17.0788   18.1816   34.7298 O   0  0  0  0  0  0  0  0  0  0  0  0
   13.2103   17.4978   36.4212 O   0  0  0  0  0  0  0  0  0  0  0  0
   14.2196   18.1528   35.6469 C   0  0  1  0  0  0  0  0  0  0  0  0
   14.9193   17.0879   34.7965 C   0  0  0  0  0  0  0  0  0  0  0  0
   16.0010   17.7090   33.9215 C   0  0  1  0  0  0  0  0  0  0  0  0
   15.4427   18.8592   33.0683 C   0  0  0  0  0  0  0  0  0  0  0  0
   14.6123   19.8740   33.8471 C   0  0  0  0  0  0  0  0  0  0  0  0
   14.7752   21.1952   33.6275 C   0  0  0  0  0  0  0  0  0  0  0  0
   14.1006   22.2863   34.3119 C   0  0  0  0  0  0  0  0  0  0  0  0
   13.8882   23.5383   33.8458 C   0  0  0  0  0  0  0  0  0  0  0  0
   14.3107   24.0693   32.4873 C   0  0  0  0  0  0  0  0  0  0  0  0
   13.6485   19.2608   34.7631 C   0  0  0  0  0  0  0  0  0  0  0  0
   13.1319   24.6594   31.6949 C   0  0  0  0  0  0  0  0  0  0  0  0
   12.2308   25.6173   32.5060 C   0  0  0  0  0  0  0  0  0  0  0  0
   11.8366   25.0426   33.8847 C   0  0  1  0  0  0  0  0  0  0  0  0
   13.1347   24.6000   34.6229 C   0  0  1  0  0  0  0  0  0  0  0  0
   12.6733   24.3983   36.0746 C   0  0  0  0  0  0  0  0  0  0  0  0
   11.5037   25.3846   36.2670 C   0  0  0  0  0  0  0  0  0  0  0  0
   11.3211   26.1023   34.9106 C   0  0  2  0  0  0  0  0  0  0  0  0
   10.8426   23.8757   33.6878 C   0  0  0  0  0  0  0  0  0  0  0  0
   12.3513   19.6210   34.7854 C   0  0  0  0  0  0  0  0  0  0  0  0
    9.9577   26.8156   34.6790 C   0  0  1  0  0  0  0  0  0  0  0  0
    8.6867   26.0905   35.0796 C   0  0  0  0  0  0  0  0  0  0  0  0
    6.2389   25.5192   34.6698 C   0  0  2  0  0  0  0  0  0  0  0  0
    9.9321   28.1632   35.4260 C   0  0  0  0  0  0  0  0  0  0  0  0
    5.7025   24.7075   33.5216 C   0  0  0  0  0  0  0  0  0  0  0  0
    4.9819   25.4111   32.3932 C   0  0  0  0  0  0  0  0  0  0  0  0
    4.2427   24.4251   33.2571 C   0  0  0  0  0  0  0  0  0  0  0  0
    5.3510   26.5934   34.9716 O   0  0  0  0  0  0  0  0  0  0  0  0
    7.5751   26.1222   34.3229 C   0  0  0  0  0  0  0  0  0  0  0  0
   17.4120   17.4305   35.2521 H   0  0  0  0  0  0  0  0  0  0  0  0
   12.5749   17.1125   35.7947 H   0  0  0  0  0  0  0  0  0  0  0  0
   14.9287   18.5885   36.3635 H   0  0  0  0  0  0  0  0  0  0  0  0
   14.1845   16.5671   34.1669 H   0  0  0  0  0  0  0  0  0  0  0  0
   15.3473   16.3231   35.4573 H   0  0  0  0  0  0  0  0  0  0  0  0
   16.4184   16.9440   33.2553 H   0  0  0  0  0  0  0  0  0  0  0  0
   14.8010   18.4344   32.2862 H   0  0  0  0  0  0  0  0  0  0  0  0
   16.2781   19.3576   32.5617 H   0  0  0  0  0  0  0  0  0  0  0  0
   15.5092   21.5005   32.8800 H   0  0  0  0  0  0  0  0  0  0  0  0
   13.7338   22.0229   35.2986 H   0  0  0  0  0  0  0  0  0  0  0  0
   14.7936   23.3062   31.8698 H   0  0  0  0  0  0  0  0  0  0  0  0
   15.0595   24.8535   32.6459 H   0  0  0  0  0  0  0  0  0  0  0  0
   12.5256   23.8369   31.2948 H   0  0  0  0  0  0  0  0  0  0  0  0
   13.5230   25.1950   30.8202 H   0  0  0  0  0  0  0  0  0  0  0  0
   11.3325   25.8424   31.9174 H   0  0  0  0  0  0  0  0  0  0  0  0
   12.7634   26.5673   32.6336 H   0  0  0  0  0  0  0  0  0  0  0  0
   13.8230   25.4603   34.6610 H   0  0  0  0  0  0  0  0  0  0  0  0
   13.4861   24.6090   36.7787 H   0  0  0  0  0  0  0  0  0  0  0  0
   12.3252   23.3804   36.2712 H   0  0  0  0  0  0  0  0  0  0  0  0
   11.7086   26.0978   37.0716 H   0  0  0  0  0  0  0  0  0  0  0  0
   10.6173   24.8119   36.5561 H   0  0  0  0  0  0  0  0  0  0  0  0
   12.0688   26.9116   34.8964 H   0  0  0  0  0  0  0  0  0  0  0  0
   11.2211   23.1303   32.9811 H   0  0  0  0  0  0  0  0  0  0  0  0
    9.8903   24.2340   33.2858 H   0  0  0  0  0  0  0  0  0  0  0  0
   10.6319   23.3384   34.6175 H   0  0  0  0  0  0  0  0  0  0  0  0
   11.9659   20.3867   34.1169 H   0  0  0  0  0  0  0  0  0  0  0  0
   11.6284   19.1769   35.4646 H   0  0  0  0  0  0  0  0  0  0  0  0
    9.9015   27.0559   33.6088 H   0  0  0  0  0  0  0  0  0  0  0  0
    8.6438   25.6306   36.0638 H   0  0  0  0  0  0  0  0  0  0  0  0
    6.3038   24.8904   35.5644 H   0  0  0  0  0  0  0  0  0  0  0  0
    8.9903   28.6971   35.2483 H   0  0  0  0  0  0  0  0  0  0  0  0
   10.7400   28.8169   35.0804 H   0  0  0  0  0  0  0  0  0  0  0  0
   10.0392   28.0292   36.5081 H   0  0  0  0  0  0  0  0  0  0  0  0
    6.3869   23.9025   33.2719 H   0  0  0  0  0  0  0  0  0  0  0  0
    5.2661   25.1412   31.3860 H   0  0  0  0  0  0  0  0  0  0  0  0
    4.7171   26.4578   32.5133 H   0  0  0  0  0  0  0  0  0  0  0  0
    3.5029   24.8028   33.9518 H   0  0  0  0  0  0  0  0  0  0  0  0
    3.9802   23.4780   32.7966 H   0  0  0  0  0  0  0  0  0  0  0  0
    5.8202   27.1788   35.5889 H   0  0  0  0  0  0  0  0  0  0  0  0
    7.6050   26.6296   33.3611 H   0  0  0  0  0  0  0  0  0  0  0  0
  1  5  1  0  0  0  0
  1 31  1  0  0  0  0
  2  3  1  0  0  0  0
  2 32  1  0  0  0  0
  3  4  1  0  0  0  0
  3 12  1  0  0  0  0
  3 33  1  1  0  0  0
  4  5  1  0  0  0  0
  4 34  1  0  0  0  0
  4 35  1  0  0  0  0
  5  6  1  0  0  0  0
  5 36  1  6  0  0  0
  6  7  1  0  0  0  0
  6 37  1  0  0  0  0
  6 38  1  0  0  0  0
  7  8  2  0  0  0  0
  7 12  1  0  0  0  0
  8  9  1  0  0  0  0
  8 39  1  0  0  0  0
  9 10  2  0  0  0  0
  9 40  1  0  0  0  0
 10 11  1  0  0  0  0
 10 16  1  0  0  0  0
 11 13  1  0  0  0  0
 11 41  1  0  0  0  0
 11 42  1  0  0  0  0
 12 21  2  0  0  0  0
 13 14  1  0  0  0  0
 13 43  1  0  0  0  0
 13 44  1  0  0  0  0
 14 15  1  0  0  0  0
 14 45  1  0  0  0  0
 14 46  1  0  0  0  0
 15 16  1  0  0  0  0
 15 19  1  0  0  0  0
 15 20  1  6  0  0  0
 16 17  1  0  0  0  0
 16 47  1  1  0  0  0
 17 18  1  0  0  0  0
 17 48  1  0  0  0  0
 17 49  1  0  0  0  0
 18 19  1  0  0  0  0
 18 50  1  0  0  0  0
 18 51  1  0  0  0  0
 19 22  1  0  0  0  0
 19 52  1  6  0  0  0
 20 53  1  0  0  0  0
 20 54  1  0  0  0  0
 20 55  1  0  0  0  0
 21 56  1  0  0  0  0
 21 57  1  0  0  0  0
 22 23  1  0  0  0  0
 22 25  1  0  0  0  0
 22 58  1  6  0  0  0
 23 30  2  0  0  0  0
 23 59  1  0  0  0  0
 24 26  1  0  0  0  0
 24 29  1  0  0  0  0
 24 30  1  0  0  0  0
 24 60  1  1  0  0  0
 25 61  1  0  0  0  0
 25 62  1  0  0  0  0
 25 63  1  0  0  0  0
 26 27  1  0  0  0  0
 26 28  1  0  0  0  0
 26 64  1  0  0  0  0
 27 28  1  0  0  0  0
 27 65  1  0  0  0  0
 27 66  1  0  0  0  0
 28 67  1  0  0  0  0
 28 68  1  0  0  0  0
 29 69  1  0  0  0  0
 30 70  1  0  0  0  0
M  END
$$$$
