MCO
 OpenBabel04041915413D

 28 28  0  0  1  0  0  0  0  0999 V2000
  -29.4484   35.1986    7.0566 O   0  0  0  0  0  0  0  0  0  0  0  0
  -28.2485   35.5610    7.2497 C   0  0  0  0  0  0  0  0  0  0  0  0
  -27.2314   35.3246    6.5335 O   0  0  0  0  0  0  0  0  0  0  0  0
  -27.9970   36.3655    8.5777 C   0  0  1  0  0  0  0  0  0  0  0  0
  -28.7666   35.7425    9.7437 C   0  0  0  0  0  0  0  0  0  0  0  0
  -27.7962   34.6956   10.2815 C   0  0  0  0  0  0  0  0  0  0  0  0
  -26.4236   35.3175   10.0726 C   0  0  0  0  0  0  0  0  0  0  0  0
  -26.6044   36.3600    9.0806 N   0  0  0  0  0  0  0  0  0  0  0  0
  -25.6280   37.1467    8.5082 C   0  0  0  0  0  0  0  0  0  0  0  0
  -25.8866   38.0663    7.7225 O   0  0  0  0  0  0  0  0  0  0  0  0
  -24.1948   36.9523    9.0118 C   0  0  2  0  0  0  0  0  0  0  0  0
  -23.9958   37.8504   10.2340 C   0  0  0  0  0  0  0  0  0  0  0  0
  -23.2202   37.3075    7.8792 C   0  0  0  0  0  0  0  0  0  0  0  0
  -21.4636   36.9773    8.2876 S   0  0  0  0  0  0  0  0  0  0  0  0
  -28.3152   37.3992    8.4016 H   0  0  0  0  0  0  0  0  0  0  0  0
  -29.7311   35.2956    9.4791 H   0  0  0  0  0  0  0  0  0  0  0  0
  -28.9544   36.4978   10.5168 H   0  0  0  0  0  0  0  0  0  0  0  0
  -27.8805   33.7697    9.7018 H   0  0  0  0  0  0  0  0  0  0  0  0
  -27.9811   34.4528   11.3322 H   0  0  0  0  0  0  0  0  0  0  0  0
  -25.6983   34.5751    9.7252 H   0  0  0  0  0  0  0  0  0  0  0  0
  -26.0527   35.7764   10.9927 H   0  0  0  0  0  0  0  0  0  0  0  0
  -24.0362   35.9076    9.2898 H   0  0  0  0  0  0  0  0  0  0  0  0
  -22.9900   37.7558   10.6484 H   0  0  0  0  0  0  0  0  0  0  0  0
  -24.7030   37.6060   11.0306 H   0  0  0  0  0  0  0  0  0  0  0  0
  -24.1574   38.9066    9.9755 H   0  0  0  0  0  0  0  0  0  0  0  0
  -23.2939   38.3708    7.6320 H   0  0  0  0  0  0  0  0  0  0  0  0
  -23.4677   36.7410    6.9747 H   0  0  0  0  0  0  0  0  0  0  0  0
  -21.5806   35.6555    8.4823 H   0  0  0  0  0  0  0  0  0  0  0  0
  1  2  2  0  0  0  0
  2  3  1  0  0  0  0
  2  4  1  0  0  0  0
  4  5  1  0  0  0  0
  4  8  1  0  0  0  0
  4 15  1  6  0  0  0
  5  6  1  0  0  0  0
  5 16  1  0  0  0  0
  5 17  1  0  0  0  0
  6  7  1  0  0  0  0
  6 18  1  0  0  0  0
  6 19  1  0  0  0  0
  7  8  1  0  0  0  0
  7 20  1  0  0  0  0
  7 21  1  0  0  0  0
  8  9  1  0  0  0  0
  9 10  2  0  0  0  0
  9 11  1  0  0  0  0
 11 12  1  0  0  0  0
 11 13  1  0  0  0  0
 11 22  1  1  0  0  0
 12 23  1  0  0  0  0
 12 24  1  0  0  0  0
 12 25  1  0  0  0  0
 13 14  1  0  0  0  0
 13 26  1  0  0  0  0
 13 27  1  0  0  0  0
 14 28  1  0  0  0  0
M  END
$$$$
