MEL
 OpenBabel04041915153D

 63 65  0  0  1  0  0  0  0  0999 V2000
   18.7510  -14.4242   24.3947 C   0  0  0  0  0  0  0  0  0  0  0  0
   18.9219  -15.7265   25.2067 C   0  0  0  0  0  0  0  0  0  0  0  0
   19.5038  -15.5051   26.6008 C   0  0  0  0  0  0  0  0  0  0  0  0
   20.7975  -14.7049   26.5328 C   0  0  0  0  0  0  0  0  0  0  0  0
   20.5814  -13.3791   25.8097 C   0  0  0  0  0  0  0  0  0  0  0  0
   20.0723  -13.6260   24.3910 C   0  0  0  0  0  0  0  0  0  0  0  0
   17.0576  -15.5773   22.9875 N   0  3  0  0  0  0  0  0  0  0  0  0
   18.2685  -14.6917   22.9348 C   0  0  1  0  0  0  0  0  0  0  0  0
   17.8833  -13.3473   22.2854 C   0  0  0  0  0  0  0  0  0  0  0  0
   16.8632  -12.7691   22.6636 O   0  0  0  0  0  0  0  0  0  0  0  0
   18.7065  -12.8283   21.3451 N   0  0  0  0  0  0  0  0  0  0  0  0
   18.4206  -11.6497   20.5118 C   0  0  2  0  0  0  0  0  0  0  0  0
   17.0951  -11.7932   19.7527 C   0  0  0  0  0  0  0  0  0  0  0  0
   16.8273  -12.8248   19.0945 O   0  0  0  0  0  0  0  0  0  0  0  0
   16.1573  -10.7880   19.9014 N   0  0  0  0  0  0  0  0  0  0  0  0
   14.8005  -11.0037   19.4735 C   0  0  0  0  0  0  0  0  0  0  0  0
   13.8378  -10.9654   20.6308 C   0  0  0  0  0  0  0  0  0  0  0  0
   13.2854   -9.7453   21.0246 C   0  0  0  0  0  0  0  0  0  0  0  0
   12.3879   -9.6910   22.0872 C   0  0  0  0  0  0  0  0  0  0  0  0
   12.0329  -10.8557   22.7872 C   0  0  0  0  0  0  0  0  0  0  0  0
   12.5993  -12.0794   22.3895 C   0  0  0  0  0  0  0  0  0  0  0  0
   13.4954  -12.1372   21.3203 C   0  0  0  0  0  0  0  0  0  0  0  0
   11.0847  -10.7877   23.9067 C   0  0  0  0  0  0  0  0  0  0  0  0
   10.9273   -9.6586   24.5779 N   0  0  0  0  0  0  0  0  0  0  0  0
   10.3715  -11.8428   24.2345 N   0  0  0  0  0  0  0  0  0  0  0  0
   19.7720  -11.9350   19.8372 C   0  0  0  0  0  0  0  0  0  0  0  0
   19.8448  -13.2768   20.5786 C   0  0  0  0  0  0  0  0  0  0  0  0
   16.4594  -16.1480   21.6985 C   0  0  0  0  0  0  0  0  0  0  0  0
   14.9392  -16.4923   21.8067 C   0  0  0  0  0  0  0  0  0  0  0  0
   14.5324  -16.5149   23.0096 O   0  0  0  0  0  0  0  0  0  0  0  0
   14.3182  -16.6045   20.7232 O   0  0  0  0  0  0  0  0  0  0  0  0
   17.9996  -13.8085   24.9137 H   0  0  0  0  0  0  0  0  0  0  0  0
   19.5746  -16.4089   24.6491 H   0  0  0  0  0  0  0  0  0  0  0  0
   17.9590  -16.2315   25.3346 H   0  0  0  0  0  0  0  0  0  0  0  0
   19.6867  -16.4750   27.0811 H   0  0  0  0  0  0  0  0  0  0  0  0
   18.7730  -14.9811   27.2295 H   0  0  0  0  0  0  0  0  0  0  0  0
   21.5531  -15.2918   25.9959 H   0  0  0  0  0  0  0  0  0  0  0  0
   21.1838  -14.5297   27.5421 H   0  0  0  0  0  0  0  0  0  0  0  0
   21.5180  -12.8106   25.7793 H   0  0  0  0  0  0  0  0  0  0  0  0
   19.8568  -12.7658   26.3598 H   0  0  0  0  0  0  0  0  0  0  0  0
   19.9424  -12.6637   23.8830 H   0  0  0  0  0  0  0  0  0  0  0  0
   20.8314  -14.1811   23.8260 H   0  0  0  0  0  0  0  0  0  0  0  0
   17.1692  -16.3919   23.5935 H   0  0  0  0  0  0  0  0  0  0  0  0
   19.0372  -15.2183   22.3549 H   0  0  0  0  0  0  0  0  0  0  0  0
   18.4664  -10.7254   21.1140 H   0  0  0  0  0  0  0  0  0  0  0  0
   16.3920   -9.9422   20.4070 H   0  0  0  0  0  0  0  0  0  0  0  0
   14.6927  -11.9604   18.9524 H   0  0  0  0  0  0  0  0  0  0  0  0
   14.5499  -10.2148   18.7585 H   0  0  0  0  0  0  0  0  0  0  0  0
   13.5435   -8.8344   20.4882 H   0  0  0  0  0  0  0  0  0  0  0  0
   11.9606   -8.7255   22.3383 H   0  0  0  0  0  0  0  0  0  0  0  0
   12.3664  -13.0113   22.9036 H   0  0  0  0  0  0  0  0  0  0  0  0
   13.9214  -13.0954   21.0222 H   0  0  0  0  0  0  0  0  0  0  0  0
   10.2866   -9.5696   25.3466 H   0  0  0  0  0  0  0  0  0  0  0  0
   11.4814   -8.8361   24.3498 H   0  0  0  0  0  0  0  0  0  0  0  0
    9.6983  -11.8400   24.9879 H   0  0  0  0  0  0  0  0  0  0  0  0
   20.5553  -11.2286   20.1327 H   0  0  0  0  0  0  0  0  0  0  0  0
   19.7551  -12.0005   18.7443 H   0  0  0  0  0  0  0  0  0  0  0  0
   19.6842  -14.1528   19.9457 H   0  0  0  0  0  0  0  0  0  0  0  0
   20.7237  -13.4224   21.2088 H   0  0  0  0  0  0  0  0  0  0  0  0
   17.0257  -17.0590   21.4907 H   0  0  0  0  0  0  0  0  0  0  0  0
   16.6260  -15.4161   20.9070 H   0  0  0  0  0  0  0  0  0  0  0  0
   16.2623  -15.0587   23.4071 H   0  0  0  0  0  0  0  0  0  0  0  0
   10.4603  -12.7105   23.7122 H   0  0  0  0  0  0  0  0  0  0  0  0
  1  8  1  0  0  0  0
  1  6  1  0  0  0  0
  1  2  1  0  0  0  0
  1 32  1  0  0  0  0
  2  3  1  0  0  0  0
  2 33  1  0  0  0  0
  2 34  1  0  0  0  0
  3  4  1  0  0  0  0
  3 35  1  0  0  0  0
  3 36  1  0  0  0  0
  4  5  1  0  0  0  0
  4 37  1  0  0  0  0
  4 38  1  0  0  0  0
  5  6  1  0  0  0  0
  5 39  1  0  0  0  0
  5 40  1  0  0  0  0
  6 41  1  0  0  0  0
  6 42  1  0  0  0  0
  7  8  1  0  0  0  0
  7 28  1  0  0  0  0
  7 43  1  0  0  0  0
  7 62  1  0  0  0  0
  8  9  1  0  0  0  0
  8 44  1  6  0  0  0
  9 11  1  0  0  0  0
  9 10  2  0  0  0  0
 11 27  1  0  0  0  0
 11 12  1  0  0  0  0
 12 26  1  0  0  0  0
 12 13  1  0  0  0  0
 12 45  1  1  0  0  0
 13 15  1  0  0  0  0
 13 14  2  0  0  0  0
 15 16  1  0  0  0  0
 15 46  1  0  0  0  0
 16 17  1  0  0  0  0
 16 47  1  0  0  0  0
 16 48  1  0  0  0  0
 17 22  2  0  0  0  0
 17 18  1  0  0  0  0
 18 19  2  0  0  0  0
 18 49  1  0  0  0  0
 19 20  1  0  0  0  0
 19 50  1  0  0  0  0
 20 23  1  0  0  0  0
 20 21  2  0  0  0  0
 21 22  1  0  0  0  0
 21 51  1  0  0  0  0
 22 52  1  0  0  0  0
 23 25  2  0  0  0  0
 23 24  1  0  0  0  0
 24 53  1  0  0  0  0
 24 54  1  0  0  0  0
 25 55  1  0  0  0  0
 25 63  1  0  0  0  0
 26 27  1  0  0  0  0
 26 56  1  0  0  0  0
 26 57  1  0  0  0  0
 27 58  1  0  0  0  0
 27 59  1  0  0  0  0
 28 29  1  0  0  0  0
 28 60  1  0  0  0  0
 28 61  1  0  0  0  0
 29 31  2  0  0  0  0
 29 30  1  0  0  0  0
M  CHG  1   7   1
M  END
$$$$
