MGS
 OpenBabel04041914333D

 43 43  0  0  1  0  0  0  0  0999 V2000
   -7.8394  -21.7764   18.3467 C   0  0  2  0  0  0  0  0  0  0  0  0
   -8.4342  -21.8726   19.6387 O   0  0  0  0  0  0  0  0  0  0  0  0
   -8.2248  -23.1601   20.2106 C   0  0  0  0  0  0  0  0  0  0  0  0
   -8.2367  -20.4406   17.6686 C   0  0  1  0  0  0  0  0  0  0  0  0
   -7.5304  -20.2480   16.4172 O   0  0  0  0  0  0  0  0  0  0  0  0
   -6.1513  -19.9638   16.6205 C   0  0  0  0  0  0  0  0  0  0  0  0
   -9.7548  -20.4536   17.3743 C   0  0  1  0  0  0  0  0  0  0  0  0
  -10.0895  -19.2924   16.5930 O   0  0  0  0  0  0  0  0  0  0  0  0
  -10.1273  -21.7425   16.6096 C   0  0  2  0  0  0  0  0  0  0  0  0
  -11.5395  -21.8434   16.2195 N   0  0  0  0  0  0  0  0  0  0  0  0
  -11.7770  -21.5393   14.8965 C   0  0  0  0  0  0  0  0  0  0  0  0
  -10.8963  -21.0146   14.1920 O   0  0  0  0  0  0  0  0  0  0  0  0
   -9.6034  -22.9941   17.3039 C   0  0  2  0  0  0  0  0  0  0  0  0
   -8.1910  -22.8920   17.5166 O   0  0  0  0  0  0  0  0  0  0  0  0
   -9.8476  -24.2386   16.4531 C   0  0  0  0  0  0  0  0  0  0  0  0
  -15.1807  -23.0324   13.7763 C   0  0  0  0  0  0  0  0  0  0  0  0
  -16.1835  -22.9863   14.7796 O   0  0  0  0  0  0  0  0  0  0  0  0
  -13.8380  -23.0233   14.4909 C   0  0  0  0  0  0  0  0  0  0  0  0
  -13.1144  -21.7194   14.2275 C   0  0  1  0  0  0  0  0  0  0  0  0
  -13.8973  -20.5483   14.3800 O   0  0  0  0  0  0  0  0  0  0  0  0
   -6.7540  -21.8098   18.4803 H   0  0  0  0  0  0  0  0  0  0  0  0
   -8.6458  -23.1551   21.2158 H   0  0  0  0  0  0  0  0  0  0  0  0
   -7.1627  -23.4157   20.2435 H   0  0  0  0  0  0  0  0  0  0  0  0
   -8.7583  -23.9283   19.6438 H   0  0  0  0  0  0  0  0  0  0  0  0
   -8.0217  -19.5795   18.3140 H   0  0  0  0  0  0  0  0  0  0  0  0
   -5.6697  -19.8144   15.6515 H   0  0  0  0  0  0  0  0  0  0  0  0
   -5.6452  -20.7982   17.1103 H   0  0  0  0  0  0  0  0  0  0  0  0
   -6.0426  -19.0569   17.2213 H   0  0  0  0  0  0  0  0  0  0  0  0
  -10.3184  -20.3775   18.3104 H   0  0  0  0  0  0  0  0  0  0  0  0
   -9.5986  -19.3973   15.7501 H   0  0  0  0  0  0  0  0  0  0  0  0
   -9.5297  -21.6926   15.6989 H   0  0  0  0  0  0  0  0  0  0  0  0
  -12.2796  -22.0370   16.8703 H   0  0  0  0  0  0  0  0  0  0  0  0
  -10.1200  -23.1337   18.2577 H   0  0  0  0  0  0  0  0  0  0  0  0
   -9.4084  -25.1210   16.9247 H   0  0  0  0  0  0  0  0  0  0  0  0
   -9.3836  -24.1381   15.4643 H   0  0  0  0  0  0  0  0  0  0  0  0
  -10.9180  -24.4127   16.3195 H   0  0  0  0  0  0  0  0  0  0  0  0
  -15.3164  -23.9558   13.2068 H   0  0  0  0  0  0  0  0  0  0  0  0
  -15.3032  -22.1925   13.0813 H   0  0  0  0  0  0  0  0  0  0  0  0
  -17.0191  -22.7636   14.3434 H   0  0  0  0  0  0  0  0  0  0  0  0
  -13.9678  -23.2036   15.5654 H   0  0  0  0  0  0  0  0  0  0  0  0
  -13.2140  -23.8424   14.1089 H   0  0  0  0  0  0  0  0  0  0  0  0
  -12.8539  -21.7638   13.1553 H   0  0  0  0  0  0  0  0  0  0  0  0
  -13.3537  -19.8315   13.9952 H   0  0  0  0  0  0  0  0  0  0  0  0
  1 14  1  0  0  0  0
  1  4  1  0  0  0  0
  1  2  1  0  0  0  0
  1 21  1  1  0  0  0
  2  3  1  0  0  0  0
  3 22  1  0  0  0  0
  3 23  1  0  0  0  0
  3 24  1  0  0  0  0
  4  7  1  0  0  0  0
  4  5  1  0  0  0  0
  4 25  1  1  0  0  0
  5  6  1  0  0  0  0
  6 26  1  0  0  0  0
  6 27  1  0  0  0  0
  6 28  1  0  0  0  0
  7  9  1  0  0  0  0
  7  8  1  0  0  0  0
  7 29  1  1  0  0  0
  8 30  1  0  0  0  0
  9 13  1  0  0  0  0
  9 10  1  0  0  0  0
  9 31  1  6  0  0  0
 10 11  1  0  0  0  0
 10 32  1  0  0  0  0
 11 19  1  0  0  0  0
 11 12  2  0  0  0  0
 13 15  1  0  0  0  0
 13 14  1  0  0  0  0
 13 33  1  1  0  0  0
 15 34  1  0  0  0  0
 15 35  1  0  0  0  0
 15 36  1  0  0  0  0
 16 18  1  0  0  0  0
 16 17  1  0  0  0  0
 16 37  1  0  0  0  0
 16 38  1  0  0  0  0
 17 39  1  0  0  0  0
 18 19  1  0  0  0  0
 18 40  1  0  0  0  0
 18 41  1  0  0  0  0
 19 20  1  0  0  0  0
 19 42  1  6  0  0  0
 20 43  1  0  0  0  0
M  END
$$$$
