MHB
 OpenBabel04041916523D

 30 31  0  0  0  0  0  0  0  0999 V2000
   33.3367   12.2229   -5.5134 C   0  0  0  0  0  0  0  0  0  0  0  0
   34.5825   12.1643   -4.8345 C   0  0  0  0  0  0  0  0  0  0  0  0
   34.8243   11.0950   -3.9242 C   0  0  0  0  0  0  0  0  0  0  0  0
   33.8697   10.1226   -3.6499 C   0  0  0  0  0  0  0  0  0  0  0  0
   32.6421   10.1881   -4.2893 C   0  0  0  0  0  0  0  0  0  0  0  0
   32.3868   11.2193   -5.2053 C   0  0  0  0  0  0  0  0  0  0  0  0
   31.7500   14.1541   -8.0498 C   0  0  0  0  0  0  0  0  0  0  0  0
   32.4846   15.3507   -8.1454 C   0  0  0  0  0  0  0  0  0  0  0  0
   32.0534   16.4383   -8.9412 C   0  0  0  0  0  0  0  0  0  0  0  0
   30.8644   16.3156   -9.6617 C   0  0  0  0  0  0  0  0  0  0  0  0
   30.1076   15.1566   -9.5785 C   0  0  0  0  0  0  0  0  0  0  0  0
   30.5587   14.0801   -8.7944 C   0  0  0  0  0  0  0  0  0  0  0  0
   35.6898   13.2005   -4.9891 C   0  0  0  0  0  0  0  0  0  0  0  0
   32.8458   17.7124   -8.9516 C   0  0  0  0  0  0  0  0  0  0  0  0
   33.0019   13.2962   -6.3941 N   0  0  0  0  0  0  0  0  0  0  0  0
   32.1263   13.0312   -7.2554 N   0  0  0  0  0  0  0  0  0  0  0  0
   35.5119   14.1775   -5.7850 O   0  0  0  0  0  0  0  0  0  0  0  0
   36.7413   13.0257   -4.2918 O   0  0  0  0  0  0  0  0  0  0  0  0
   30.3835   17.3094  -10.4639 O   0  0  0  0  0  0  0  0  0  0  0  0
   35.7883   11.0423   -3.4136 H   0  0  0  0  0  0  0  0  0  0  0  0
   34.0856    9.3372   -2.9306 H   0  0  0  0  0  0  0  0  0  0  0  0
   31.8769    9.4520   -4.0687 H   0  0  0  0  0  0  0  0  0  0  0  0
   31.4070   11.2534   -5.6724 H   0  0  0  0  0  0  0  0  0  0  0  0
   33.4095   15.4389   -7.5729 H   0  0  0  0  0  0  0  0  0  0  0  0
   29.1792   15.0780  -10.1395 H   0  0  0  0  0  0  0  0  0  0  0  0
   29.9621   13.1707   -8.7524 H   0  0  0  0  0  0  0  0  0  0  0  0
   33.7464   17.6321   -8.3343 H   0  0  0  0  0  0  0  0  0  0  0  0
   32.2407   18.5340   -8.5534 H   0  0  0  0  0  0  0  0  0  0  0  0
   33.1608   17.9580   -9.9709 H   0  0  0  0  0  0  0  0  0  0  0  0
   31.1300   17.6256  -10.9995 H   0  0  0  0  0  0  0  0  0  0  0  0
  1 15  1  0  0  0  0
  1  6  2  0  0  0  0
  1  2  1  0  0  0  0
  2 13  1  0  0  0  0
  2  3  2  0  0  0  0
  3  4  1  0  0  0  0
  3 20  1  0  0  0  0
  4  5  2  0  0  0  0
  4 21  1  0  0  0  0
  5  6  1  0  0  0  0
  5 22  1  0  0  0  0
  6 23  1  0  0  0  0
  7 16  1  0  0  0  0
  7 12  2  0  0  0  0
  7  8  1  0  0  0  0
  8  9  2  0  0  0  0
  8 24  1  0  0  0  0
  9 14  1  0  0  0  0
  9 10  1  0  0  0  0
 10 19  1  0  0  0  0
 10 11  2  0  0  0  0
 11 12  1  0  0  0  0
 11 25  1  0  0  0  0
 12 26  1  0  0  0  0
 13 18  2  0  0  0  0
 13 17  1  0  0  0  0
 14 27  1  0  0  0  0
 14 28  1  0  0  0  0
 14 29  1  0  0  0  0
 15 16  2  0  0  0  0
 19 30  1  0  0  0  0
M  END
$$$$
