MID
 OpenBabel04041916223D

 69 72  0  0  1  0  0  0  0  0999 V2000
   -5.9254    4.7453   25.9709 S   0  0  0  0  0  0  0  0  0  0  0  0
   -6.8337    5.8060   26.3415 O   0  0  0  0  0  0  0  0  0  0  0  0
   -6.3129    3.3523   26.0328 O   0  0  0  0  0  0  0  0  0  0  0  0
   -3.8233    3.8763   27.5492 C   0  0  0  0  0  0  0  0  0  0  0  0
   -4.4212    4.9670   26.9033 C   0  0  0  0  0  0  0  0  0  0  0  0
   -3.9187    6.2547   27.0923 C   0  0  0  0  0  0  0  0  0  0  0  0
   -2.8405    6.4693   27.9529 C   0  0  0  0  0  0  0  0  0  0  0  0
   -1.1473    5.6088   29.4733 C   0  0  0  0  0  0  0  0  0  0  0  0
   -0.5253    4.5355   30.1074 C   0  0  0  0  0  0  0  0  0  0  0  0
   -0.9978    3.2420   29.9075 C   0  0  0  0  0  0  0  0  0  0  0  0
   -2.1008    3.0160   29.0789 C   0  0  0  0  0  0  0  0  0  0  0  0
   -2.7291    4.0825   28.4155 C   0  0  0  0  0  0  0  0  0  0  0  0
   -2.2391    5.3940   28.6137 C   0  0  0  0  0  0  0  0  0  0  0  0
   -5.4789    5.0404   24.3939 N   0  0  0  0  0  0  0  0  0  0  0  0
   -4.6074    4.0815   23.7456 C   0  0  0  0  0  0  0  0  0  0  0  0
   -3.3000    4.7114   23.2947 C   0  0  0  0  0  0  0  0  0  0  0  0
   -2.9276    5.8390   23.6087 O   0  0  0  0  0  0  0  0  0  0  0  0
   -0.3769    2.9355   22.1553 C   0  0  0  0  0  0  0  0  0  0  0  0
   -1.2618    4.1737   21.9318 C   0  0  1  0  0  0  0  0  0  0  0  0
   -1.3379    4.4576   20.4312 C   0  0  0  0  0  0  0  0  0  0  0  0
   -1.9976    5.7764   20.1460 C   0  0  0  0  0  0  0  0  0  0  0  0
   -3.3896    5.8704   20.0679 C   0  0  0  0  0  0  0  0  0  0  0  0
   -1.2155    6.9200   20.0107 C   0  0  0  0  0  0  0  0  0  0  0  0
   -3.9981    7.1030   19.8576 C   0  0  0  0  0  0  0  0  0  0  0  0
   -1.8255    8.1485   19.8041 C   0  0  0  0  0  0  0  0  0  0  0  0
   -3.2252    8.2636   19.7378 C   0  0  0  0  0  0  0  0  0  0  0  0
   -3.8538    9.5948   19.5759 C   0  0  0  0  0  0  0  0  0  0  0  0
   -0.2421    2.0946   21.2613 O   0  0  0  0  0  0  0  0  0  0  0  0
   -2.5829    3.8627   22.4871 N   0  0  0  0  0  0  0  0  0  0  0  0
   -5.1150    9.7703   19.8770 N   0  0  0  0  0  0  0  0  0  0  0  0
   -3.1239   10.5978   19.1403 N   0  0  0  0  0  0  0  0  0  0  0  0
    0.1435    2.7466   23.4212 N   0  0  0  0  0  0  0  0  0  0  0  0
    0.0208    3.7003   24.5158 C   0  0  0  0  0  0  0  0  0  0  0  0
   -0.6899    3.0391   25.6777 C   0  0  0  0  0  0  0  0  0  0  0  0
    0.1442    1.8556   26.1474 C   0  0  0  0  0  0  0  0  0  0  0  0
    0.3113    0.8639   24.9938 C   0  0  0  0  0  0  0  0  0  0  0  0
    0.8961    1.5369   23.7492 C   0  0  0  0  0  0  0  0  0  0  0  0
   -4.2086    2.8687   27.4033 H   0  0  0  0  0  0  0  0  0  0  0  0
   -4.3777    7.1093   26.5900 H   0  0  0  0  0  0  0  0  0  0  0  0
   -2.4782    7.4823   28.1194 H   0  0  0  0  0  0  0  0  0  0  0  0
   -0.7716    6.6146   29.6459 H   0  0  0  0  0  0  0  0  0  0  0  0
    0.3272    4.7141   30.7585 H   0  0  0  0  0  0  0  0  0  0  0  0
   -0.5075    2.4051   30.3997 H   0  0  0  0  0  0  0  0  0  0  0  0
   -2.4580    1.9966   28.9473 H   0  0  0  0  0  0  0  0  0  0  0  0
   -5.9784    5.7537   23.8700 H   0  0  0  0  0  0  0  0  0  0  0  0
   -5.1174    3.6579   22.8683 H   0  0  0  0  0  0  0  0  0  0  0  0
   -4.3503    3.2568   24.4138 H   0  0  0  0  0  0  0  0  0  0  0  0
   -0.8311    5.0528   22.4177 H   0  0  0  0  0  0  0  0  0  0  0  0
   -1.8788    3.6639   19.9046 H   0  0  0  0  0  0  0  0  0  0  0  0
   -0.3228    4.4756   20.0136 H   0  0  0  0  0  0  0  0  0  0  0  0
   -4.0059    4.9815   20.1924 H   0  0  0  0  0  0  0  0  0  0  0  0
   -0.1308    6.8695   20.0868 H   0  0  0  0  0  0  0  0  0  0  0  0
   -5.0824    7.1149   19.7959 H   0  0  0  0  0  0  0  0  0  0  0  0
   -1.1638    9.0047   19.7254 H   0  0  0  0  0  0  0  0  0  0  0  0
   -2.9811    2.9678   22.2256 H   0  0  0  0  0  0  0  0  0  0  0  0
   -5.5725   10.6727   19.7970 H   0  0  0  0  0  0  0  0  0  0  0  0
   -2.1525   10.4686   18.8785 H   0  0  0  0  0  0  0  0  0  0  0  0
   -3.4837   11.5308   19.0603 H   0  0  0  0  0  0  0  0  0  0  0  0
   -0.5144    4.6039   24.2449 H   0  0  0  0  0  0  0  0  0  0  0  0
    1.0367    4.0018   24.7910 H   0  0  0  0  0  0  0  0  0  0  0  0
   -1.6853    2.6915   25.3677 H   0  0  0  0  0  0  0  0  0  0  0  0
   -0.8172    3.7698   26.4752 H   0  0  0  0  0  0  0  0  0  0  0  0
   -0.3338    1.3700   27.0028 H   0  0  0  0  0  0  0  0  0  0  0  0
    1.1273    2.2145   26.4780 H   0  0  0  0  0  0  0  0  0  0  0  0
   -0.6765    0.4573   24.7426 H   0  0  0  0  0  0  0  0  0  0  0  0
    0.9461    0.0295   25.3061 H   0  0  0  0  0  0  0  0  0  0  0  0
    1.9315    1.8452   23.9325 H   0  0  0  0  0  0  0  0  0  0  0  0
    0.9052    0.8288   22.9133 H   0  0  0  0  0  0  0  0  0  0  0  0
   -5.6898    9.0122   20.2295 H   0  0  0  0  0  0  0  0  0  0  0  0
  1  2  2  0  0  0  0
  1  3  2  0  0  0  0
  1  5  1  0  0  0  0
  1 14  1  0  0  0  0
  4 12  2  0  0  0  0
  4  5  1  0  0  0  0
  4 38  1  0  0  0  0
  5  6  2  0  0  0  0
  6  7  1  0  0  0  0
  6 39  1  0  0  0  0
  7 13  2  0  0  0  0
  7 40  1  0  0  0  0
  8  9  2  0  0  0  0
  8 13  1  0  0  0  0
  8 41  1  0  0  0  0
  9 10  1  0  0  0  0
  9 42  1  0  0  0  0
 10 11  2  0  0  0  0
 10 43  1  0  0  0  0
 11 12  1  0  0  0  0
 11 44  1  0  0  0  0
 12 13  1  0  0  0  0
 14 15  1  0  0  0  0
 14 45  1  0  0  0  0
 15 16  1  0  0  0  0
 15 46  1  0  0  0  0
 15 47  1  0  0  0  0
 16 17  2  0  0  0  0
 16 29  1  0  0  0  0
 18 19  1  0  0  0  0
 18 28  2  0  0  0  0
 18 32  1  0  0  0  0
 19 20  1  0  0  0  0
 19 29  1  0  0  0  0
 19 48  1  1  0  0  0
 20 21  1  0  0  0  0
 20 49  1  0  0  0  0
 20 50  1  0  0  0  0
 21 22  2  0  0  0  0
 21 23  1  0  0  0  0
 22 24  1  0  0  0  0
 22 51  1  0  0  0  0
 23 25  2  0  0  0  0
 23 52  1  0  0  0  0
 24 26  2  0  0  0  0
 24 53  1  0  0  0  0
 25 26  1  0  0  0  0
 25 54  1  0  0  0  0
 26 27  1  0  0  0  0
 27 30  2  0  0  0  0
 27 31  1  0  0  0  0
 29 55  1  0  0  0  0
 30 56  1  0  0  0  0
 30 69  1  0  0  0  0
 31 57  1  0  0  0  0
 31 58  1  0  0  0  0
 32 33  1  0  0  0  0
 32 37  1  0  0  0  0
 33 34  1  0  0  0  0
 33 59  1  0  0  0  0
 33 60  1  0  0  0  0
 34 35  1  0  0  0  0
 34 61  1  0  0  0  0
 34 62  1  0  0  0  0
 35 36  1  0  0  0  0
 35 63  1  0  0  0  0
 35 64  1  0  0  0  0
 36 37  1  0  0  0  0
 36 65  1  0  0  0  0
 36 66  1  0  0  0  0
 37 67  1  0  0  0  0
 37 68  1  0  0  0  0
M  END
$$$$
