MIU
 OpenBabel04041917273D

 69 70  0  0  1  0  0  0  0  0999 V2000
   17.1424  -17.2836   21.9842 C   0  0  0  0  0  0  0  0  0  0  0  0
   15.3300  -17.5970   21.9383 S   0  0  0  0  0  0  0  0  0  0  0  0
   14.6062  -16.0853   21.9751 N   0  0  0  0  0  0  0  0  0  0  0  0
   14.7670  -15.1032   20.9016 C   0  0  2  0  0  0  0  0  0  0  0  0
   14.9763  -18.3297   23.1201 O   0  0  0  0  0  0  0  0  0  0  0  0
   15.0618  -18.1388   20.5742 O   0  0  0  0  0  0  0  0  0  0  0  0
   17.9685  -17.6914   20.9218 C   0  0  0  0  0  0  0  0  0  0  0  0
   19.3611  -17.4806   20.9950 C   0  0  0  0  0  0  0  0  0  0  0  0
   19.9252  -16.8660   22.1240 C   0  0  0  0  0  0  0  0  0  0  0  0
   19.1105  -16.4514   23.1995 C   0  0  0  0  0  0  0  0  0  0  0  0
   19.7310  -15.7817   24.4254 C   0  0  0  0  0  0  0  0  0  0  0  0
   20.6406  -16.5620   25.0571 F   0  0  0  0  0  0  0  0  0  0  0  0
   20.3876  -14.6332   24.0852 F   0  0  0  0  0  0  0  0  0  0  0  0
   18.8146  -15.4151   25.3584 F   0  0  0  0  0  0  0  0  0  0  0  0
   17.7041  -16.6633   23.1201 C   0  0  0  0  0  0  0  0  0  0  0  0
   15.8831  -14.0673   21.2753 C   0  0  0  0  0  0  0  0  0  0  0  0
   16.1696  -13.7833   22.4461 O   0  0  0  0  0  0  0  0  0  0  0  0
   16.6692  -13.4586   20.2481 N   0  0  0  0  0  0  0  0  0  0  0  0
   17.9657  -12.7864   20.5874 C   0  0  0  0  0  0  0  0  0  0  0  0
   19.1078  -13.4529   19.8214 C   0  0  0  0  0  0  0  0  0  0  0  0
   18.7563  -13.5014   18.2732 N   0  3  2  0  0  0  0  0  0  0  0  0
   17.3778  -14.1203   18.0300 C   0  0  0  0  0  0  0  0  0  0  0  0
   16.3058  -13.4925   18.8453 C   0  0  0  0  0  0  0  0  0  0  0  0
   19.6397  -14.4472   17.5860 C   0  0  0  0  0  0  0  0  0  0  0  0
   13.3591  -14.4792   20.6172 C   0  0  0  0  0  0  0  0  0  0  0  0
   12.6283  -13.7205   21.7555 C   0  0  0  0  0  0  0  0  0  0  0  0
   12.3076  -12.2996   21.2648 C   0  0  0  0  0  0  0  0  0  0  0  0
   11.5911  -11.4640   22.2252 N   0  0  0  0  0  0  0  0  0  0  0  0
   12.1638  -10.8175   23.2521 C   0  0  0  0  0  0  0  0  0  0  0  0
   13.1748   -9.9751   23.1149 N   0  0  0  0  0  0  0  0  0  0  0  0
   11.7201  -11.0460   24.4738 N   0  0  0  0  0  0  0  0  0  0  0  0
   20.4706  -13.9819   16.4281 C   0  0  0  0  0  0  0  0  0  0  0  0
   20.4783  -12.5202   16.0765 C   0  0  0  0  0  0  0  0  0  0  0  0
   19.1051  -12.1081   15.6975 N   0  3  0  0  0  0  0  0  0  0  0  0
   13.9056  -15.8927   22.7261 H   0  0  0  0  0  0  0  0  0  0  0  0
   15.0792  -15.6128   19.9945 H   0  0  0  0  0  0  0  0  0  0  0  0
   17.5457  -18.2006   20.0508 H   0  0  0  0  0  0  0  0  0  0  0  0
   20.0129  -17.8230   20.1775 H   0  0  0  0  0  0  0  0  0  0  0  0
   21.0121  -16.7231   22.1760 H   0  0  0  0  0  0  0  0  0  0  0  0
   17.0653  -16.3617   23.9436 H   0  0  0  0  0  0  0  0  0  0  0  0
   18.2122  -12.8378   21.6554 H   0  0  0  0  0  0  0  0  0  0  0  0
   17.9259  -11.7287   20.2849 H   0  0  0  0  0  0  0  0  0  0  0  0
   19.2018  -14.4949   20.1358 H   0  0  0  0  0  0  0  0  0  0  0  0
   20.0609  -12.9251   19.9534 H   0  0  0  0  0  0  0  0  0  0  0  0
   17.4873  -15.1804   18.3059 H   0  0  0  0  0  0  0  0  0  0  0  0
   17.2121  -14.0398   16.9482 H   0  0  0  0  0  0  0  0  0  0  0  0
   16.1276  -12.4817   18.4738 H   0  0  0  0  0  0  0  0  0  0  0  0
   15.4029  -14.0744   18.6884 H   0  0  0  0  0  0  0  0  0  0  0  0
   18.9712  -15.2101   17.1745 H   0  0  0  0  0  0  0  0  0  0  0  0
   20.2308  -14.9233   18.3591 H   0  0  0  0  0  0  0  0  0  0  0  0
   12.6995  -15.3149   20.3250 H   0  0  0  0  0  0  0  0  0  0  0  0
   13.4285  -13.8066   19.7572 H   0  0  0  0  0  0  0  0  0  0  0  0
   13.2422  -13.6796   22.6583 H   0  0  0  0  0  0  0  0  0  0  0  0
   11.6890  -14.2385   22.0145 H   0  0  0  0  0  0  0  0  0  0  0  0
   11.6818  -12.3785   20.3686 H   0  0  0  0  0  0  0  0  0  0  0  0
   13.2455  -11.8108   20.9964 H   0  0  0  0  0  0  0  0  0  0  0  0
   10.5893  -11.3180   22.1172 H   0  0  0  0  0  0  0  0  0  0  0  0
   13.5374   -9.4903   23.9408 H   0  0  0  0  0  0  0  0  0  0  0  0
   11.0006  -11.7284   24.6315 H   0  0  0  0  0  0  0  0  0  0  0  0
   12.1656  -10.5978   25.2678 H   0  0  0  0  0  0  0  0  0  0  0  0
   20.1674  -14.5658   15.5500 H   0  0  0  0  0  0  0  0  0  0  0  0
   21.4911  -14.2842   16.6647 H   0  0  0  0  0  0  0  0  0  0  0  0
   21.1254  -12.3143   15.2289 H   0  0  0  0  0  0  0  0  0  0  0  0
   20.7714  -11.9126   16.9364 H   0  0  0  0  0  0  0  0  0  0  0  0
   19.0771  -11.0935   15.4295 H   0  0  0  0  0  0  0  0  0  0  0  0
   18.7790  -12.6229   14.8494 H   0  0  0  0  0  0  0  0  0  0  0  0
   18.8033  -12.4861   18.0291 H   0  0  0  0  0  0  0  0  0  0  0  0
   13.5061   -9.6954   22.2144 H   0  0  0  0  0  0  0  0  0  0  0  0
   18.3996  -12.2361   16.3832 H   0  0  0  0  0  0  0  0  0  0  0  0
  1  2  1  0  0  0  0
  1  7  2  0  0  0  0
  1 15  1  0  0  0  0
  2  3  1  0  0  0  0
  2  5  2  0  0  0  0
  2  6  2  0  0  0  0
  3  4  1  0  0  0  0
  3 35  1  0  0  0  0
  4 16  1  0  0  0  0
  4 25  1  0  0  0  0
  4 36  1  6  0  0  0
  7  8  1  0  0  0  0
  7 37  1  0  0  0  0
  8  9  2  0  0  0  0
  8 38  1  0  0  0  0
  9 10  1  0  0  0  0
  9 39  1  0  0  0  0
 10 11  1  0  0  0  0
 10 15  2  0  0  0  0
 11 12  1  0  0  0  0
 11 13  1  0  0  0  0
 11 14  1  0  0  0  0
 15 40  1  0  0  0  0
 16 17  2  0  0  0  0
 16 18  1  0  0  0  0
 18 19  1  0  0  0  0
 18 23  1  0  0  0  0
 19 20  1  0  0  0  0
 19 41  1  0  0  0  0
 19 42  1  0  0  0  0
 20 21  1  0  0  0  0
 20 43  1  0  0  0  0
 20 44  1  0  0  0  0
 21 22  1  0  0  0  0
 21 24  1  0  0  0  0
 21 67  1  6  0  0  0
 22 23  1  0  0  0  0
 22 45  1  0  0  0  0
 22 46  1  0  0  0  0
 23 47  1  0  0  0  0
 23 48  1  0  0  0  0
 24 32  1  0  0  0  0
 24 49  1  0  0  0  0
 24 50  1  0  0  0  0
 25 26  1  0  0  0  0
 25 51  1  0  0  0  0
 25 52  1  0  0  0  0
 26 27  1  0  0  0  0
 26 53  1  0  0  0  0
 26 54  1  0  0  0  0
 27 28  1  0  0  0  0
 27 55  1  0  0  0  0
 27 56  1  0  0  0  0
 28 29  1  0  0  0  0
 28 57  1  0  0  0  0
 29 30  2  0  0  0  0
 29 31  1  0  0  0  0
 30 58  1  0  0  0  0
 30 68  1  0  0  0  0
 31 59  1  0  0  0  0
 31 60  1  0  0  0  0
 32 33  1  0  0  0  0
 32 61  1  0  0  0  0
 32 62  1  0  0  0  0
 33 34  1  0  0  0  0
 33 63  1  0  0  0  0
 33 64  1  0  0  0  0
 34 65  1  0  0  0  0
 34 66  1  0  0  0  0
 34 69  1  0  0  0  0
M  CHG  2  21   1  34   1
M  END
$$$$
