MK1
 OpenBabel04041916493D

 93 97  0  0  1  0  0  0  0  0999 V2000
   23.4276   20.5807    3.0208 N   0  0  0  0  0  0  0  0  0  0  0  0
   23.4463   20.4505    4.4862 C   0  0  0  0  0  0  0  0  0  0  0  0
   24.4177   19.3804    4.9575 C   0  0  1  0  0  0  0  0  0  0  0  0
   24.3565   19.3929    6.4734 C   0  0  0  0  0  0  0  0  0  0  0  0
   23.3774   19.0118    7.0568 O   0  0  0  0  0  0  0  0  0  0  0  0
   25.5279   19.8084    7.0588 N   0  0  0  0  0  0  0  0  0  0  0  0
   25.7041   19.9163    8.4843 C   0  0  0  0  0  0  0  0  0  0  0  0
   27.0982   20.4673    8.7274 C   0  0  0  0  0  0  0  0  0  0  0  0
   25.5735   18.5541    9.0912 C   0  0  0  0  0  0  0  0  0  0  0  0
   24.6955   20.8559    9.0959 C   0  0  0  0  0  0  0  0  0  0  0  0
   23.9160   18.0526    4.4073 N   0  3  1  0  0  0  0  0  0  0  0  0
   23.8230   18.1022    2.9123 C   0  0  0  0  0  0  0  0  0  0  0  0
   23.0028   19.2909    2.4465 C   0  0  0  0  0  0  0  0  0  0  0  0
   24.7562   16.9037    4.7854 C   0  0  0  0  0  0  0  0  0  0  0  0
   23.8874   15.6746    5.0592 C   0  0  1  0  0  0  0  0  0  0  0  0
   24.6917   14.5636    4.6951 O   0  0  0  0  0  0  0  0  0  0  0  0
   23.4760   15.5692    6.5218 C   0  0  0  0  0  0  0  0  0  0  0  0
   22.6086   14.3525    6.8393 C   0  0  1  0  0  0  0  0  0  0  0  0
   22.4547   14.2351    8.3618 C   0  0  0  0  0  0  0  0  0  0  0  0
   21.4744   13.1928    8.8084 C   0  0  0  0  0  0  0  0  0  0  0  0
   21.6610   11.8541    8.4707 C   0  0  0  0  0  0  0  0  0  0  0  0
   20.7796   10.8823    8.9200 C   0  0  0  0  0  0  0  0  0  0  0  0
   19.6832   11.2613    9.6829 C   0  0  0  0  0  0  0  0  0  0  0  0
   19.4755   12.6035   10.0017 C   0  0  0  0  0  0  0  0  0  0  0  0
   20.3761   13.5669    9.5745 C   0  0  0  0  0  0  0  0  0  0  0  0
   21.2176   14.5196    6.2353 C   0  0  0  0  0  0  0  0  0  0  0  0
   20.5806   15.5338    6.3061 O   0  0  0  0  0  0  0  0  0  0  0  0
   20.7622   13.3782    5.6340 N   0  0  0  0  0  0  0  0  0  0  0  0
   19.3618   13.2368    5.3183 C   0  0  2  0  0  0  0  0  0  0  0  0
   18.7824   11.8515    5.6858 C   0  0  2  0  0  0  0  0  0  0  0  0
   19.7189   10.7999    5.3700 O   0  0  0  0  0  0  0  0  0  0  0  0
   17.5341   11.7170    4.7961 C   0  0  0  0  0  0  0  0  0  0  0  0
   17.9614   12.4548    3.5533 C   0  0  0  0  0  0  0  0  0  0  0  0
   17.4389   12.3519    2.2572 C   0  0  0  0  0  0  0  0  0  0  0  0
   18.0099   13.1738    1.2723 C   0  0  0  0  0  0  0  0  0  0  0  0
   19.0392   14.0696    1.5772 C   0  0  0  0  0  0  0  0  0  0  0  0
   19.5452   14.1667    2.8764 C   0  0  0  0  0  0  0  0  0  0  0  0
   19.0063   13.3343    3.8535 C   0  0  0  0  0  0  0  0  0  0  0  0
   22.4375   21.6118    2.6178 C   0  0  0  0  0  0  0  0  0  0  0  0
   22.7723   23.0365    2.9929 C   0  0  0  0  0  0  0  0  0  0  0  0
   23.8708   23.7085    2.4517 C   0  0  0  0  0  0  0  0  0  0  0  0
   24.1891   24.9950    2.7268 N   0  0  0  0  0  0  0  0  0  0  0  0
   23.3584   25.6462    3.5730 C   0  0  0  0  0  0  0  0  0  0  0  0
   22.2305   25.0686    4.1503 C   0  0  0  0  0  0  0  0  0  0  0  0
   21.9339   23.7452    3.8587 C   0  0  0  0  0  0  0  0  0  0  0  0
   22.4480   20.1809    4.8543 H   0  0  0  0  0  0  0  0  0  0  0  0
   23.7514   21.4008    4.9136 H   0  0  0  0  0  0  0  0  0  0  0  0
   25.4464   19.5422    4.6112 H   0  0  0  0  0  0  0  0  0  0  0  0
   26.3209   20.0656    6.4929 H   0  0  0  0  0  0  0  0  0  0  0  0
   27.2964   20.5760    9.7956 H   0  0  0  0  0  0  0  0  0  0  0  0
   27.1854   21.4427    8.2436 H   0  0  0  0  0  0  0  0  0  0  0  0
   27.8378   19.7939    8.2899 H   0  0  0  0  0  0  0  0  0  0  0  0
   25.6831   18.6216   10.1758 H   0  0  0  0  0  0  0  0  0  0  0  0
   26.3513   17.9173    8.6623 H   0  0  0  0  0  0  0  0  0  0  0  0
   24.5898   18.1286    8.8536 H   0  0  0  0  0  0  0  0  0  0  0  0
   24.8428   20.9011   10.1794 H   0  0  0  0  0  0  0  0  0  0  0  0
   23.6761   20.5167    8.8899 H   0  0  0  0  0  0  0  0  0  0  0  0
   24.8420   21.8449    8.6583 H   0  0  0  0  0  0  0  0  0  0  0  0
   23.3521   17.1721    2.5932 H   0  0  0  0  0  0  0  0  0  0  0  0
   24.8464   18.1718    2.5317 H   0  0  0  0  0  0  0  0  0  0  0  0
   23.1175   19.3241    1.3585 H   0  0  0  0  0  0  0  0  0  0  0  0
   21.9568   19.0881    2.7123 H   0  0  0  0  0  0  0  0  0  0  0  0
   25.3539   17.1713    5.6569 H   0  0  0  0  0  0  0  0  0  0  0  0
   25.4376   16.7261    3.9451 H   0  0  0  0  0  0  0  0  0  0  0  0
   22.9994   15.6834    4.4138 H   0  0  0  0  0  0  0  0  0  0  0  0
   25.4967   14.5878    5.2422 H   0  0  0  0  0  0  0  0  0  0  0  0
   22.9345   16.4762    6.8004 H   0  0  0  0  0  0  0  0  0  0  0  0
   24.3836   15.5008    7.1330 H   0  0  0  0  0  0  0  0  0  0  0  0
   23.0644   13.4327    6.4564 H   0  0  0  0  0  0  0  0  0  0  0  0
   22.1395   15.2011    8.7765 H   0  0  0  0  0  0  0  0  0  0  0  0
   23.4257   13.9817    8.8053 H   0  0  0  0  0  0  0  0  0  0  0  0
   22.5059   11.5697    7.8488 H   0  0  0  0  0  0  0  0  0  0  0  0
   20.9560    9.8382    8.6767 H   0  0  0  0  0  0  0  0  0  0  0  0
   18.9799   10.5155   10.0365 H   0  0  0  0  0  0  0  0  0  0  0  0
   18.6147   12.8955   10.5910 H   0  0  0  0  0  0  0  0  0  0  0  0
   20.2286   14.6121    9.8412 H   0  0  0  0  0  0  0  0  0  0  0  0
   21.3928   12.6120    5.4426 H   0  0  0  0  0  0  0  0  0  0  0  0
   18.8131   13.9812    5.9045 H   0  0  0  0  0  0  0  0  0  0  0  0
   18.5390   11.7920    6.7553 H   0  0  0  0  0  0  0  0  0  0  0  0
   19.2900    9.9525    5.5885 H   0  0  0  0  0  0  0  0  0  0  0  0
   16.6879   12.2246    5.2708 H   0  0  0  0  0  0  0  0  0  0  0  0
   17.3070   10.6643    4.6187 H   0  0  0  0  0  0  0  0  0  0  0  0
   16.6298   11.6698    1.9776 H   0  0  0  0  0  0  0  0  0  0  0  0
   17.6478   13.1232    0.2445 H   0  0  0  0  0  0  0  0  0  0  0  0
   19.4512   14.6993    0.7855 H   0  0  0  0  0  0  0  0  0  0  0  0
   20.3375   14.8666    3.0857 H   0  0  0  0  0  0  0  0  0  0  0  0
   21.4672   21.3499    3.0683 H   0  0  0  0  0  0  0  0  0  0  0  0
   22.3210   21.5746    1.5255 H   0  0  0  0  0  0  0  0  0  0  0  0
   24.5210   23.1697    1.7669 H   0  0  0  0  0  0  0  0  0  0  0  0
   23.5856   26.6807    3.8266 H   0  0  0  0  0  0  0  0  0  0  0  0
   21.5982   25.6540    4.8172 H   0  0  0  0  0  0  0  0  0  0  0  0
   21.0523   23.2787    4.3036 H   0  0  0  0  0  0  0  0  0  0  0  0
   22.9721   17.9207    4.8096 H   0  0  0  0  0  0  0  0  0  0  0  0
  1  2  1  0  0  0  0
  1 13  1  0  0  0  0
  1 39  1  0  0  0  0
  2  3  1  0  0  0  0
  2 46  1  0  0  0  0
  2 47  1  0  0  0  0
  3  4  1  0  0  0  0
  3 11  1  0  0  0  0
  3 48  1  6  0  0  0
  4  5  2  0  0  0  0
  4  6  1  0  0  0  0
  6  7  1  0  0  0  0
  6 49  1  0  0  0  0
  7  8  1  0  0  0  0
  7  9  1  0  0  0  0
  7 10  1  0  0  0  0
  8 50  1  0  0  0  0
  8 51  1  0  0  0  0
  8 52  1  0  0  0  0
  9 53  1  0  0  0  0
  9 54  1  0  0  0  0
  9 55  1  0  0  0  0
 10 56  1  0  0  0  0
 10 57  1  0  0  0  0
 10 58  1  0  0  0  0
 11 12  1  0  0  0  0
 11 14  1  0  0  0  0
 11 93  1  1  0  0  0
 12 13  1  0  0  0  0
 12 59  1  0  0  0  0
 12 60  1  0  0  0  0
 13 61  1  0  0  0  0
 13 62  1  0  0  0  0
 14 15  1  0  0  0  0
 14 63  1  0  0  0  0
 14 64  1  0  0  0  0
 15 16  1  0  0  0  0
 15 17  1  0  0  0  0
 15 65  1  6  0  0  0
 16 66  1  0  0  0  0
 17 18  1  0  0  0  0
 17 67  1  0  0  0  0
 17 68  1  0  0  0  0
 18 19  1  0  0  0  0
 18 26  1  0  0  0  0
 18 69  1  6  0  0  0
 19 20  1  0  0  0  0
 19 70  1  0  0  0  0
 19 71  1  0  0  0  0
 20 21  2  0  0  0  0
 20 25  1  0  0  0  0
 21 22  1  0  0  0  0
 21 72  1  0  0  0  0
 22 23  2  0  0  0  0
 22 73  1  0  0  0  0
 23 24  1  0  0  0  0
 23 74  1  0  0  0  0
 24 25  2  0  0  0  0
 24 75  1  0  0  0  0
 25 76  1  0  0  0  0
 26 27  2  0  0  0  0
 26 28  1  0  0  0  0
 28 29  1  0  0  0  0
 28 77  1  0  0  0  0
 29 30  1  0  0  0  0
 29 38  1  0  0  0  0
 29 78  1  1  0  0  0
 30 31  1  0  0  0  0
 30 32  1  0  0  0  0
 30 79  1  1  0  0  0
 31 80  1  0  0  0  0
 32 33  1  0  0  0  0
 32 81  1  0  0  0  0
 32 82  1  0  0  0  0
 33 34  2  0  0  0  0
 33 38  1  0  0  0  0
 34 35  1  0  0  0  0
 34 83  1  0  0  0  0
 35 36  2  0  0  0  0
 35 84  1  0  0  0  0
 36 37  1  0  0  0  0
 36 85  1  0  0  0  0
 37 38  2  0  0  0  0
 37 86  1  0  0  0  0
 39 40  1  0  0  0  0
 39 87  1  0  0  0  0
 39 88  1  0  0  0  0
 40 41  2  0  0  0  0
 40 45  1  0  0  0  0
 41 42  1  0  0  0  0
 41 89  1  0  0  0  0
 42 43  2  0  0  0  0
 43 44  1  0  0  0  0
 43 90  1  0  0  0  0
 44 45  2  0  0  0  0
 44 91  1  0  0  0  0
 45 92  1  0  0  0  0
M  CHG  1  11   1
M  END
$$$$
