MK1
 OpenBabel04041916493D

 93 97  0  0  1  0  0  0  0  0999 V2000
   22.4269   34.6742   16.2587 N   0  0  0  0  0  0  0  0  0  0  0  0
   21.0877   34.5974   15.6453 C   0  0  0  0  0  0  0  0  0  0  0  0
   20.2808   33.4372   16.2134 C   0  0  1  0  0  0  0  0  0  0  0  0
   18.9447   33.4558   15.4941 C   0  0  0  0  0  0  0  0  0  0  0  0
   18.8520   33.0064   14.3554 O   0  0  0  0  0  0  0  0  0  0  0  0
   17.9192   33.9420   16.2742 N   0  0  0  0  0  0  0  0  0  0  0  0
   16.5251   33.9588   15.8484 C   0  0  0  0  0  0  0  0  0  0  0  0
   15.6698   34.6148   16.9342 C   0  0  0  0  0  0  0  0  0  0  0  0
   16.0229   32.5371   15.6662 C   0  0  0  0  0  0  0  0  0  0  0  0
   16.3618   34.7610   14.5652 C   0  0  0  0  0  0  0  0  0  0  0  0
   21.0376   32.1456   15.9281 N   0  3  1  0  0  0  0  0  0  0  0  0
   22.4471   32.2004   16.4629 C   0  0  0  0  0  0  0  0  0  0  0  0
   23.1728   33.4410   15.9577 C   0  0  0  0  0  0  0  0  0  0  0  0
   20.3335   30.9630   16.4735 C   0  0  0  0  0  0  0  0  0  0  0  0
   20.5026   29.7596   15.5483 C   0  0  1  0  0  0  0  0  0  0  0  0
   20.4968   28.6208   16.3896 O   0  0  0  0  0  0  0  0  0  0  0  0
   19.3509   29.6826   14.5509 C   0  0  0  0  0  0  0  0  0  0  0  0
   19.4425   28.4927   13.5933 C   0  0  1  0  0  0  0  0  0  0  0  0
   18.1371   28.4281   12.7831 C   0  0  0  0  0  0  0  0  0  0  0  0
   18.1250   27.3792   11.7117 C   0  0  0  0  0  0  0  0  0  0  0  0
   18.2746   26.0200   12.0352 C   0  0  0  0  0  0  0  0  0  0  0  0
   18.2898   25.0678   11.0267 C   0  0  0  0  0  0  0  0  0  0  0  0
   18.1247   25.4556    9.6974 C   0  0  0  0  0  0  0  0  0  0  0  0
   17.9824   26.8174    9.3745 C   0  0  0  0  0  0  0  0  0  0  0  0
   17.9851   27.7656   10.3766 C   0  0  0  0  0  0  0  0  0  0  0  0
   20.6009   28.6783   12.6316 C   0  0  0  0  0  0  0  0  0  0  0  0
   20.8467   29.7575   12.0985 O   0  0  0  0  0  0  0  0  0  0  0  0
   21.3093   27.5302   12.4023 N   0  0  0  0  0  0  0  0  0  0  0  0
   22.2158   27.4309   11.2889 C   0  0  2  0  0  0  0  0  0  0  0  0
   22.1654   26.0468   10.5997 C   0  0  2  0  0  0  0  0  0  0  0  0
   21.9931   24.9680   11.5474 O   0  0  0  0  0  0  0  0  0  0  0  0
   23.5202   25.9348    9.8833 C   0  0  0  0  0  0  0  0  0  0  0  0
   24.4340   26.6952   10.8185 C   0  0  0  0  0  0  0  0  0  0  0  0
   25.8234   26.6680   10.9147 C   0  0  0  0  0  0  0  0  0  0  0  0
   26.4557   27.5084   11.8422 C   0  0  0  0  0  0  0  0  0  0  0  0
   25.7047   28.3864   12.6341 C   0  0  0  0  0  0  0  0  0  0  0  0
   24.3131   28.4294   12.5124 C   0  0  0  0  0  0  0  0  0  0  0  0
   23.6810   27.5597   11.6289 C   0  0  0  0  0  0  0  0  0  0  0  0
   23.1563   35.8082   15.6444 C   0  0  0  0  0  0  0  0  0  0  0  0
   22.5790   37.1340   16.0415 C   0  0  0  0  0  0  0  0  0  0  0  0
   22.4917   37.5473   17.3607 C   0  0  0  0  0  0  0  0  0  0  0  0
   21.9617   38.7280   17.7404 N   0  0  0  0  0  0  0  0  0  0  0  0
   21.5195   39.5407   16.7554 C   0  0  0  0  0  0  0  0  0  0  0  0
   21.5671   39.2237   15.4082 C   0  0  0  0  0  0  0  0  0  0  0  0
   22.1038   38.0006   15.0477 C   0  0  0  0  0  0  0  0  0  0  0  0
   21.1880   34.4426   14.5627 H   0  0  0  0  0  0  0  0  0  0  0  0
   20.5201   35.5170   15.8027 H   0  0  0  0  0  0  0  0  0  0  0  0
   20.1321   33.4934   17.2985 H   0  0  0  0  0  0  0  0  0  0  0  0
   18.0996   34.2538   17.2212 H   0  0  0  0  0  0  0  0  0  0  0  0
   14.6195   34.6528   16.6265 H   0  0  0  0  0  0  0  0  0  0  0  0
   16.0110   35.6367   17.1289 H   0  0  0  0  0  0  0  0  0  0  0  0
   15.7300   34.0520   17.8722 H   0  0  0  0  0  0  0  0  0  0  0  0
   14.9924   32.5336   15.3202 H   0  0  0  0  0  0  0  0  0  0  0  0
   16.0878   31.9999   16.6208 H   0  0  0  0  0  0  0  0  0  0  0  0
   16.6371   31.9858   14.9380 H   0  0  0  0  0  0  0  0  0  0  0  0
   15.3156   34.7586   14.2465 H   0  0  0  0  0  0  0  0  0  0  0  0
   16.9585   34.3528   13.7456 H   0  0  0  0  0  0  0  0  0  0  0  0
   16.6803   35.7940   14.7351 H   0  0  0  0  0  0  0  0  0  0  0  0
   22.9582   31.2964   16.1233 H   0  0  0  0  0  0  0  0  0  0  0  0
   22.3745   32.2120   17.5570 H   0  0  0  0  0  0  0  0  0  0  0  0
   24.1555   33.4666   16.4394 H   0  0  0  0  0  0  0  0  0  0  0  0
   23.3147   33.3467   14.8744 H   0  0  0  0  0  0  0  0  0  0  0  0
   19.2737   31.1932   16.6235 H   0  0  0  0  0  0  0  0  0  0  0  0
   20.7471   30.7625   17.4693 H   0  0  0  0  0  0  0  0  0  0  0  0
   21.4716   29.8014   15.0246 H   0  0  0  0  0  0  0  0  0  0  0  0
   19.6577   28.6268   16.8884 H   0  0  0  0  0  0  0  0  0  0  0  0
   19.2884   30.6100   13.9726 H   0  0  0  0  0  0  0  0  0  0  0  0
   18.4189   29.5850   15.1218 H   0  0  0  0  0  0  0  0  0  0  0  0
   19.5780   27.5675   14.1667 H   0  0  0  0  0  0  0  0  0  0  0  0
   17.9555   29.4044   12.3173 H   0  0  0  0  0  0  0  0  0  0  0  0
   17.2857   28.2405   13.4507 H   0  0  0  0  0  0  0  0  0  0  0  0
   18.4002   25.7076   13.0678 H   0  0  0  0  0  0  0  0  0  0  0  0
   18.4226   24.0157   11.2596 H   0  0  0  0  0  0  0  0  0  0  0  0
   18.1316   24.7293    8.9024 H   0  0  0  0  0  0  0  0  0  0  0  0
   17.8671   27.1077    8.3344 H   0  0  0  0  0  0  0  0  0  0  0  0
   17.8702   28.8206   10.1143 H   0  0  0  0  0  0  0  0  0  0  0  0
   21.0392   26.6535   12.8394 H   0  0  0  0  0  0  0  0  0  0  0  0
   21.9711   28.1900   10.5383 H   0  0  0  0  0  0  0  0  0  0  0  0
   21.3123   25.9820    9.9173 H   0  0  0  0  0  0  0  0  0  0  0  0
   21.9918   24.1486   11.0426 H   0  0  0  0  0  0  0  0  0  0  0  0
   23.4521   26.4611    8.9232 H   0  0  0  0  0  0  0  0  0  0  0  0
   23.8212   24.8959    9.7395 H   0  0  0  0  0  0  0  0  0  0  0  0
   26.4321   26.0078   10.3034 H   0  0  0  0  0  0  0  0  0  0  0  0
   27.5397   27.4851   11.9513 H   0  0  0  0  0  0  0  0  0  0  0  0
   26.2145   29.0346   13.3456 H   0  0  0  0  0  0  0  0  0  0  0  0
   23.7442   29.1416   13.0991 H   0  0  0  0  0  0  0  0  0  0  0  0
   23.1113   35.7071   14.5597 H   0  0  0  0  0  0  0  0  0  0  0  0
   24.2161   35.7962   15.9279 H   0  0  0  0  0  0  0  0  0  0  0  0
   22.8441   36.9105   18.1679 H   0  0  0  0  0  0  0  0  0  0  0  0
   21.1199   40.5015   17.0716 H   0  0  0  0  0  0  0  0  0  0  0  0
   21.2124   39.9210   14.6592 H   0  0  0  0  0  0  0  0  0  0  0  0
   22.1658   37.7288   13.9991 H   0  0  0  0  0  0  0  0  0  0  0  0
   21.0589   32.0763   14.8934 H   0  0  0  0  0  0  0  0  0  0  0  0
  1  2  1  0  0  0  0
  1 13  1  0  0  0  0
  1 39  1  0  0  0  0
  2  3  1  0  0  0  0
  2 46  1  0  0  0  0
  2 47  1  0  0  0  0
  3  4  1  0  0  0  0
  3 11  1  0  0  0  0
  3 48  1  1  0  0  0
  4  5  2  0  0  0  0
  4  6  1  0  0  0  0
  6  7  1  0  0  0  0
  6 49  1  0  0  0  0
  7  8  1  0  0  0  0
  7  9  1  0  0  0  0
  7 10  1  0  0  0  0
  8 50  1  0  0  0  0
  8 51  1  0  0  0  0
  8 52  1  0  0  0  0
  9 53  1  0  0  0  0
  9 54  1  0  0  0  0
  9 55  1  0  0  0  0
 10 56  1  0  0  0  0
 10 57  1  0  0  0  0
 10 58  1  0  0  0  0
 11 12  1  0  0  0  0
 11 14  1  0  0  0  0
 11 93  1  6  0  0  0
 12 13  1  0  0  0  0
 12 59  1  0  0  0  0
 12 60  1  0  0  0  0
 13 61  1  0  0  0  0
 13 62  1  0  0  0  0
 14 15  1  0  0  0  0
 14 63  1  0  0  0  0
 14 64  1  0  0  0  0
 15 16  1  0  0  0  0
 15 17  1  0  0  0  0
 15 65  1  6  0  0  0
 16 66  1  0  0  0  0
 17 18  1  0  0  0  0
 17 67  1  0  0  0  0
 17 68  1  0  0  0  0
 18 19  1  0  0  0  0
 18 26  1  0  0  0  0
 18 69  1  1  0  0  0
 19 20  1  0  0  0  0
 19 70  1  0  0  0  0
 19 71  1  0  0  0  0
 20 21  2  0  0  0  0
 20 25  1  0  0  0  0
 21 22  1  0  0  0  0
 21 72  1  0  0  0  0
 22 23  2  0  0  0  0
 22 73  1  0  0  0  0
 23 24  1  0  0  0  0
 23 74  1  0  0  0  0
 24 25  2  0  0  0  0
 24 75  1  0  0  0  0
 25 76  1  0  0  0  0
 26 27  2  0  0  0  0
 26 28  1  0  0  0  0
 28 29  1  0  0  0  0
 28 77  1  0  0  0  0
 29 30  1  0  0  0  0
 29 38  1  0  0  0  0
 29 78  1  6  0  0  0
 30 31  1  0  0  0  0
 30 32  1  0  0  0  0
 30 79  1  6  0  0  0
 31 80  1  0  0  0  0
 32 33  1  0  0  0  0
 32 81  1  0  0  0  0
 32 82  1  0  0  0  0
 33 34  2  0  0  0  0
 33 38  1  0  0  0  0
 34 35  1  0  0  0  0
 34 83  1  0  0  0  0
 35 36  2  0  0  0  0
 35 84  1  0  0  0  0
 36 37  1  0  0  0  0
 36 85  1  0  0  0  0
 37 38  2  0  0  0  0
 37 86  1  0  0  0  0
 39 40  1  0  0  0  0
 39 87  1  0  0  0  0
 39 88  1  0  0  0  0
 40 41  2  0  0  0  0
 40 45  1  0  0  0  0
 41 42  1  0  0  0  0
 41 89  1  0  0  0  0
 42 43  2  0  0  0  0
 43 44  1  0  0  0  0
 43 90  1  0  0  0  0
 44 45  2  0  0  0  0
 44 91  1  0  0  0  0
 45 92  1  0  0  0  0
M  CHG  1  11   1
M  END
$$$$
