MNP
 OpenBabel04041913563D

 19 19  0  0  0  0  0  0  0  0999 V2000
   14.0100   37.7770   36.4665 C   0  0  0  0  0  0  0  0  0  0  0  0
   13.9550   36.3446   35.9272 C   0  0  0  0  0  0  0  0  0  0  0  0
   12.6700   35.9364   35.2428 C   0  0  0  0  0  0  0  0  0  0  0  0
   12.3617   36.4563   33.9771 C   0  0  0  0  0  0  0  0  0  0  0  0
   11.1805   36.0628   33.3403 C   0  0  0  0  0  0  0  0  0  0  0  0
   10.8479   36.5664   32.0060 N   0  0  0  0  0  0  0  0  0  0  0  0
    9.7906   36.1621   31.4880 O   0  0  0  0  0  0  0  0  0  0  0  0
   11.6415   37.3331   31.4422 O   0  0  0  0  0  0  0  0  0  0  0  0
   10.3086   35.1514   33.9531 C   0  0  0  0  0  0  0  0  0  0  0  0
   10.6180   34.6249   35.2010 C   0  0  0  0  0  0  0  0  0  0  0  0
   11.7925   35.0205   35.8464 C   0  0  0  0  0  0  0  0  0  0  0  0
   14.6479   37.8996   37.5543 O   0  0  0  0  0  0  0  0  0  0  0  0
   13.4687   38.6756   35.7628 O   0  0  0  0  0  0  0  0  0  0  0  0
   14.1604   35.6488   36.7512 H   0  0  0  0  0  0  0  0  0  0  0  0
   14.7817   36.2184   35.2169 H   0  0  0  0  0  0  0  0  0  0  0  0
   13.0419   37.1777   33.5218 H   0  0  0  0  0  0  0  0  0  0  0  0
    9.3871   34.8454   33.4633 H   0  0  0  0  0  0  0  0  0  0  0  0
    9.9464   33.9072   35.6650 H   0  0  0  0  0  0  0  0  0  0  0  0
   12.0227   34.6108   36.8290 H   0  0  0  0  0  0  0  0  0  0  0  0
  1 13  2  0  0  0  0
  1 12  1  0  0  0  0
  1  2  1  0  0  0  0
  2  3  1  0  0  0  0
  2 14  1  0  0  0  0
  2 15  1  0  0  0  0
  3 11  2  0  0  0  0
  3  4  1  0  0  0  0
  4  5  2  0  0  0  0
  4 16  1  0  0  0  0
  5  9  1  0  0  0  0
  5  6  1  0  0  0  0
  6  8  2  0  0  0  0
  6  7  2  0  0  0  0
  9 10  2  0  0  0  0
  9 17  1  0  0  0  0
 10 11  1  0  0  0  0
 10 18  1  0  0  0  0
 11 19  1  0  0  0  0
M  END
$$$$
