MNX
 OpenBabel04041915403D

 25 27  0  0  0  0  0  0  0  0999 V2000
   26.6616    3.5387   16.3706 C   0  0  0  0  0  0  0  0  0  0  0  0
   25.9649    4.7906   16.1567 C   0  0  0  0  0  0  0  0  0  0  0  0
   25.3190    5.4504   17.2153 C   0  0  0  0  0  0  0  0  0  0  0  0
   25.3449    4.8931   18.5083 C   0  0  0  0  0  0  0  0  0  0  0  0
   26.0084    3.6947   18.7447 C   0  0  0  0  0  0  0  0  0  0  0  0
   26.6424    3.0482   17.6904 C   0  0  0  0  0  0  0  0  0  0  0  0
   24.6410    6.6455   17.0946 O   0  3  0  0  0  0  0  0  0  0  0  0
   24.5414    7.2743   15.8697 C   0  0  0  0  0  0  0  0  0  0  0  0
   25.1333    6.7631   14.6933 C   0  0  0  0  0  0  0  0  0  0  0  0
   25.8962    5.4686   14.8217 C   0  0  0  0  0  0  0  0  0  0  0  0
   25.0225    7.4537   13.4195 C   0  0  0  0  0  0  0  0  0  0  0  0
   24.2940    8.6505   13.4255 C   0  0  0  0  0  0  0  0  0  0  0  0
   23.6995    9.1706   14.5627 C   0  0  0  0  0  0  0  0  0  0  0  0
   23.8217    8.4878   15.7821 C   0  0  0  0  0  0  0  0  0  0  0  0
   26.4697    4.9864   13.8477 O   0  0  0  0  0  0  0  0  0  0  0  0
   27.2868    2.8401   15.5008 O   0  0  0  0  0  0  0  0  0  0  0  0
   25.5120    7.0973   12.2962 O   0  0  0  0  0  0  0  0  0  0  0  0
   23.1544    9.1219   16.9356 N   0  0  0  0  0  0  0  0  0  0  0  0
   23.2177    8.5848   18.0537 O   0  0  0  0  0  0  0  0  0  0  0  0
   22.5476   10.1837   16.7434 O   0  0  0  0  0  0  0  0  0  0  0  0
   24.8503    5.3861   19.3399 H   0  0  0  0  0  0  0  0  0  0  0  0
   26.0471    3.2421   19.7297 H   0  0  0  0  0  0  0  0  0  0  0  0
   27.1623    2.1054   17.8727 H   0  0  0  0  0  0  0  0  0  0  0  0
   24.2034    9.1799   12.4749 H   0  0  0  0  0  0  0  0  0  0  0  0
   23.1551   10.1038   14.4528 H   0  0  0  0  0  0  0  0  0  0  0  0
  1  2  2  0  0  0  0
  1  6  1  0  0  0  0
  1 16  1  0  0  0  0
  2  3  1  0  0  0  0
  2 10  1  0  0  0  0
  3  4  2  0  0  0  0
  3  7  1  0  0  0  0
  4  5  1  0  0  0  0
  4 21  1  0  0  0  0
  5  6  2  0  0  0  0
  5 22  1  0  0  0  0
  6 23  1  0  0  0  0
  7  8  1  0  0  0  0
  8  9  2  0  0  0  0
  8 14  1  0  0  0  0
  9 10  1  0  0  0  0
  9 11  1  0  0  0  0
 10 15  2  0  0  0  0
 11 12  2  0  0  0  0
 11 17  1  0  0  0  0
 12 13  1  0  0  0  0
 12 24  1  0  0  0  0
 13 14  2  0  0  0  0
 13 25  1  0  0  0  0
 14 18  1  0  0  0  0
 18 19  2  0  0  0  0
 18 20  2  0  0  0  0
M  CHG  1   7   1
M  END
$$$$
