MNY
 OpenBabel04041915413D

 28 30  0  0  0  0  0  0  0  0999 V2000
   21.4758    7.7135   21.5996 C   0  0  0  0  0  0  0  0  0  0  0  0
   22.0270    7.7384   20.2553 C   0  0  0  0  0  0  0  0  0  0  0  0
   23.0005    6.7888   19.8101 C   0  0  0  0  0  0  0  0  0  0  0  0
   23.5013    5.7301   20.6703 C   0  0  0  0  0  0  0  0  0  0  0  0
   22.9376    5.7330   21.9755 C   0  0  0  0  0  0  0  0  0  0  0  0
   21.9800    6.6734   22.4178 C   0  0  0  0  0  0  0  0  0  0  0  0
   23.5385    6.8799   18.3896 C   0  0  0  0  0  0  0  0  0  0  0  0
   23.0568    7.9553   17.4535 C   0  0  0  0  0  0  0  0  0  0  0  0
   22.0868    8.8815   17.8976 C   0  0  0  0  0  0  0  0  0  0  0  0
   21.5432    8.8161   19.2995 C   0  0  0  0  0  0  0  0  0  0  0  0
   21.6230    9.9146   17.0069 C   0  0  0  0  0  0  0  0  0  0  0  0
   22.1471    9.9721   15.6998 C   0  0  0  0  0  0  0  0  0  0  0  0
   23.1096    9.0457   15.2607 C   0  0  0  0  0  0  0  0  0  0  0  0
   23.5845    8.0221   16.1165 C   0  0  0  0  0  0  0  0  0  0  0  0
   20.7107    9.6545   19.6150 O   0  0  0  0  0  0  0  0  0  0  0  0
   24.3718    6.1041   17.9439 O   0  0  0  0  0  0  0  0  0  0  0  0
   20.6133    8.5145   22.0805 O   0  0  0  0  0  0  0  0  0  0  0  0
   20.6691   10.8748   17.3592 N   0  0  0  0  0  0  0  0  0  0  0  0
   24.5456    7.1443   15.5990 N   0  0  0  0  0  0  0  0  0  0  0  0
   24.3650    4.8446   20.3572 O   0  0  0  0  0  0  0  0  0  0  0  0
   23.2702    4.9514   22.6804 H   0  0  0  0  0  0  0  0  0  0  0  0
   21.6018    6.6033   23.4535 H   0  0  0  0  0  0  0  0  0  0  0  0
   21.8053   10.7484   15.0139 H   0  0  0  0  0  0  0  0  0  0  0  0
   23.4907    9.1215   14.2435 H   0  0  0  0  0  0  0  0  0  0  0  0
   20.2790   10.8372   18.3168 H   0  0  0  0  0  0  0  0  0  0  0  0
   20.3563   11.5906   16.7251 H   0  0  0  0  0  0  0  0  0  0  0  0
   24.8993    6.3941   16.2184 H   0  0  0  0  0  0  0  0  0  0  0  0
   24.9024    7.2069   14.6642 H   0  0  0  0  0  0  0  0  0  0  0  0
  1  2  2  0  0  0  0
  1  6  1  0  0  0  0
  1 17  1  0  0  0  0
  2  3  1  0  0  0  0
  2 10  1  0  0  0  0
  3  4  2  0  0  0  0
  3  7  1  0  0  0  0
  4  5  1  0  0  0  0
  4 20  1  0  0  0  0
  5  6  2  0  0  0  0
  5 21  1  0  0  0  0
  6 22  1  0  0  0  0
  7  8  1  0  0  0  0
  7 16  2  0  0  0  0
  8  9  2  0  0  0  0
  8 14  1  0  0  0  0
  9 10  1  0  0  0  0
  9 11  1  0  0  0  0
 10 15  2  0  0  0  0
 11 12  2  0  0  0  0
 11 18  1  0  0  0  0
 12 13  1  0  0  0  0
 12 23  1  0  0  0  0
 13 14  2  0  0  0  0
 13 24  1  0  0  0  0
 14 19  1  0  0  0  0
 18 25  1  0  0  0  0
 18 26  1  0  0  0  0
 19 27  1  0  0  0  0
 19 28  1  0  0  0  0
M  END
$$$$
