MOF
 OpenBabel04041916523D

 67 71  0  0  1  0  0  0  0  0999 V2000
   -5.0251  -11.2671   30.4635 O   0  0  0  0  0  0  0  0  0  0  0  0
   -4.6511  -10.3830   29.6896 C   0  0  0  0  0  0  0  0  0  0  0  0
   -5.6013   -9.3435   29.2003 C   0  0  0  0  0  0  0  0  0  0  0  0
   -3.2469  -10.3969   29.2341 C   0  0  0  0  0  0  0  0  0  0  0  0
   -2.7475   -9.4960   28.3765 C   0  0  0  0  0  0  0  0  0  0  0  0
   -1.3140   -9.6191   27.8718 C   0  0  0  0  0  0  0  0  0  0  0  0
   -3.5733   -8.3400   27.8061 C   0  0  1  0  0  0  0  0  0  0  0  0
   -5.0681   -8.3169   28.2342 C   0  0  0  0  0  0  0  0  0  0  0  0
   -2.9488   -7.0486   28.3959 C   0  0  0  0  0  0  0  0  0  0  0  0
   -3.4996   -8.4190   26.2308 C   0  0  1  0  0  0  0  0  0  0  0  0
   -4.2277  -10.0984   25.7429 Cl  0  0  0  0  0  0  0  0  0  0  0  0
   -4.4296   -7.4091   25.4796 C   0  0  1  0  0  0  0  0  0  0  0  0
   -4.3206   -6.0651   25.9279 O   0  0  0  0  0  0  0  0  0  0  0  0
   -2.0029   -8.3784   25.7375 C   0  0  1  0  0  0  0  0  0  0  0  0
   -1.2199   -9.5698   26.3421 C   0  0  0  0  0  0  0  0  0  0  0  0
   -1.9639   -8.4178   24.2039 C   0  0  2  0  0  0  0  0  0  0  0  0
   -0.6278   -8.4153   23.4674 C   0  0  0  0  0  0  0  0  0  0  0  0
   -0.9731   -7.9892   22.0161 C   0  0  1  0  0  0  0  0  0  0  0  0
   -0.3980   -9.0098   21.0305 C   0  0  0  0  0  0  0  0  0  0  0  0
   -2.8020   -7.3273   23.5094 C   0  0  1  0  0  0  0  0  0  0  0  0
   -4.2716   -7.4793   23.9610 C   0  0  0  0  0  0  0  0  0  0  0  0
   -2.3073   -5.8949   23.8181 C   0  0  0  0  0  0  0  0  0  0  0  0
   -2.5265   -7.7181   21.9928 C   0  0  1  0  0  0  0  0  0  0  0  0
   -2.9695   -6.5906   21.0747 C   0  0  0  0  0  0  0  0  0  0  0  0
   -2.1427   -5.8448   20.5262 O   0  0  0  0  0  0  0  0  0  0  0  0
   -4.4590   -6.3061   20.9932 C   0  0  0  0  0  0  0  0  0  0  0  0
   -4.8751   -5.4104   19.5290 Cl  0  0  0  0  0  0  0  0  0  0  0  0
   -3.2277   -8.9394   21.7407 O   0  0  0  0  0  0  0  0  0  0  0  0
   -3.4229   -9.4219   20.4791 C   0  0  0  0  0  0  0  0  0  0  0  0
   -3.2383   -8.7892   19.4537 O   0  0  0  0  0  0  0  0  0  0  0  0
   -3.8494  -10.7739   20.6363 C   0  0  0  0  0  0  0  0  0  0  0  0
   -4.0042  -11.5011   21.8045 C   0  0  0  0  0  0  0  0  0  0  0  0
   -4.3966  -12.8016   21.4337 C   0  0  0  0  0  0  0  0  0  0  0  0
   -4.4339  -12.8012   20.0622 C   0  0  0  0  0  0  0  0  0  0  0  0
   -4.1148  -11.5723   19.5654 O   0  0  0  0  0  0  0  0  0  0  0  0
   -6.0216   -8.8207   30.0647 H   0  0  0  0  0  0  0  0  0  0  0  0
   -6.4299   -9.8715   28.7089 H   0  0  0  0  0  0  0  0  0  0  0  0
   -2.6497  -11.2162   29.6275 H   0  0  0  0  0  0  0  0  0  0  0  0
   -0.8554  -10.5572   28.2125 H   0  0  0  0  0  0  0  0  0  0  0  0
   -0.7012   -8.8145   28.2956 H   0  0  0  0  0  0  0  0  0  0  0  0
   -5.3265   -7.3200   28.6130 H   0  0  0  0  0  0  0  0  0  0  0  0
   -5.7246   -8.4184   27.3708 H   0  0  0  0  0  0  0  0  0  0  0  0
   -3.0478   -7.0504   29.4886 H   0  0  0  0  0  0  0  0  0  0  0  0
   -3.4521   -6.1456   28.0462 H   0  0  0  0  0  0  0  0  0  0  0  0
   -1.8857   -6.9292   28.1724 H   0  0  0  0  0  0  0  0  0  0  0  0
   -5.4762   -7.6603   25.6597 H   0  0  0  0  0  0  0  0  0  0  0  0
   -4.9095   -5.5111   25.3824 H   0  0  0  0  0  0  0  0  0  0  0  0
   -1.5126   -7.4535   26.0760 H   0  0  0  0  0  0  0  0  0  0  0  0
   -1.6072  -10.5128   25.9373 H   0  0  0  0  0  0  0  0  0  0  0  0
   -0.1683   -9.5406   26.0339 H   0  0  0  0  0  0  0  0  0  0  0  0
   -2.3949   -9.3902   23.9422 H   0  0  0  0  0  0  0  0  0  0  0  0
   -0.1789   -9.4143   23.5061 H   0  0  0  0  0  0  0  0  0  0  0  0
    0.1032   -7.7118   23.8804 H   0  0  0  0  0  0  0  0  0  0  0  0
   -0.4567   -7.0507   21.8182 H   0  0  0  0  0  0  0  0  0  0  0  0
    0.6712   -9.1470   21.2350 H   0  0  0  0  0  0  0  0  0  0  0  0
   -0.4882   -8.6596   19.9988 H   0  0  0  0  0  0  0  0  0  0  0  0
   -0.8572  -10.0009   21.1120 H   0  0  0  0  0  0  0  0  0  0  0  0
   -4.9124   -6.7038   23.5419 H   0  0  0  0  0  0  0  0  0  0  0  0
   -4.6920   -8.4296   23.6136 H   0  0  0  0  0  0  0  0  0  0  0  0
   -2.4579   -5.6130   24.8613 H   0  0  0  0  0  0  0  0  0  0  0  0
   -2.8444   -5.1463   23.2241 H   0  0  0  0  0  0  0  0  0  0  0  0
   -1.2392   -5.7665   23.6471 H   0  0  0  0  0  0  0  0  0  0  0  0
   -4.7456   -5.6826   21.8401 H   0  0  0  0  0  0  0  0  0  0  0  0
   -5.0365   -7.2327   21.0075 H   0  0  0  0  0  0  0  0  0  0  0  0
   -3.8197  -11.1205   22.7959 H   0  0  0  0  0  0  0  0  0  0  0  0
   -4.5702  -13.6348   22.0938 H   0  0  0  0  0  0  0  0  0  0  0  0
   -4.6457  -13.5698   19.3284 H   0  0  0  0  0  0  0  0  0  0  0  0
  1  2  2  0  0  0  0
  2  3  1  0  0  0  0
  2  4  1  0  0  0  0
  3  8  1  0  0  0  0
  3 36  1  0  0  0  0
  3 37  1  0  0  0  0
  4  5  2  0  0  0  0
  4 38  1  0  0  0  0
  5  6  1  0  0  0  0
  5  7  1  0  0  0  0
  6 15  1  0  0  0  0
  6 39  1  0  0  0  0
  6 40  1  0  0  0  0
  7  8  1  0  0  0  0
  7  9  1  1  0  0  0
  7 10  1  0  0  0  0
  8 41  1  0  0  0  0
  8 42  1  0  0  0  0
  9 43  1  0  0  0  0
  9 44  1  0  0  0  0
  9 45  1  0  0  0  0
 10 11  1  6  0  0  0
 10 12  1  0  0  0  0
 10 14  1  0  0  0  0
 12 13  1  0  0  0  0
 12 21  1  0  0  0  0
 12 46  1  1  0  0  0
 13 47  1  0  0  0  0
 14 15  1  0  0  0  0
 14 16  1  0  0  0  0
 14 48  1  1  0  0  0
 15 49  1  0  0  0  0
 15 50  1  0  0  0  0
 16 17  1  0  0  0  0
 16 20  1  0  0  0  0
 16 51  1  6  0  0  0
 17 18  1  0  0  0  0
 17 52  1  0  0  0  0
 17 53  1  0  0  0  0
 18 19  1  0  0  0  0
 18 23  1  0  0  0  0
 18 54  1  6  0  0  0
 19 55  1  0  0  0  0
 19 56  1  0  0  0  0
 19 57  1  0  0  0  0
 20 21  1  0  0  0  0
 20 22  1  1  0  0  0
 20 23  1  0  0  0  0
 21 58  1  0  0  0  0
 21 59  1  0  0  0  0
 22 60  1  0  0  0  0
 22 61  1  0  0  0  0
 22 62  1  0  0  0  0
 23 24  1  6  0  0  0
 23 28  1  0  0  0  0
 24 25  2  0  0  0  0
 24 26  1  0  0  0  0
 26 27  1  0  0  0  0
 26 63  1  0  0  0  0
 26 64  1  0  0  0  0
 28 29  1  0  0  0  0
 29 30  2  0  0  0  0
 29 31  1  0  0  0  0
 31 32  2  0  0  0  0
 31 35  1  0  0  0  0
 32 33  1  0  0  0  0
 32 65  1  0  0  0  0
 33 34  2  0  0  0  0
 33 66  1  0  0  0  0
 34 35  1  0  0  0  0
 34 67  1  0  0  0  0
M  END
$$$$
