MPJ
 OpenBabel04041916203D

 21 20  0  0  1  0  0  0  0  0999 V2000
   14.6528    9.0470   19.4867 N   0  3  0  0  0  0  0  0  0  0  0  0
   14.2186   10.4519   19.7823 C   0  0  1  0  0  0  0  0  0  0  0  0
   12.7719   10.5329   20.2292 C   0  0  0  0  0  0  0  0  0  0  0  0
   11.8028   10.0656   19.1605 C   0  0  0  0  0  0  0  0  0  0  0  0
   10.0979   10.3002   19.7616 S   0  0  0  0  0  0  0  0  0  0  0  0
    9.2124    9.9876   18.2286 C   0  0  0  0  0  0  0  0  0  0  0  0
   15.0267    9.8482   22.2062 O   0  0  0  0  0  0  0  0  0  0  0  0
   14.9702   12.4043   21.5470 O   0  0  0  0  0  0  0  0  0  0  0  0
   15.4083   10.9942   21.2592 P   0  0  0  0  0  0  0  0  0  0  0  0
   16.6994   10.7225   20.4968 O   0  0  0  0  0  0  0  0  0  0  0  0
   15.6883    9.1842   19.4571 H   0  0  0  0  0  0  0  0  0  0  0  0
   14.5598    8.5781   20.4086 H   0  0  0  0  0  0  0  0  0  0  0  0
   14.4744   11.0765   18.9228 H   0  0  0  0  0  0  0  0  0  0  0  0
   12.5696   11.5784   20.4838 H   0  0  0  0  0  0  0  0  0  0  0  0
   12.6305    9.9542   21.1509 H   0  0  0  0  0  0  0  0  0  0  0  0
   11.9462    9.0030   18.9369 H   0  0  0  0  0  0  0  0  0  0  0  0
   11.9561   10.6370   18.2381 H   0  0  0  0  0  0  0  0  0  0  0  0
    8.1382   10.0993   18.3979 H   0  0  0  0  0  0  0  0  0  0  0  0
    9.4056    8.9688   17.8831 H   0  0  0  0  0  0  0  0  0  0  0  0
    9.5156   10.7006   17.4571 H   0  0  0  0  0  0  0  0  0  0  0  0
   14.2668    8.5823   18.6863 H   0  0  0  0  0  0  0  0  0  0  0  0
  1  2  1  0  0  0  0
  1 11  1  0  0  0  0
  1 12  1  0  0  0  0
  1 21  1  0  0  0  0
  2  3  1  0  0  0  0
  2  9  1  0  0  0  0
  2 13  1  6  0  0  0
  3  4  1  0  0  0  0
  3 14  1  0  0  0  0
  3 15  1  0  0  0  0
  4  5  1  0  0  0  0
  4 16  1  0  0  0  0
  4 17  1  0  0  0  0
  5  6  1  0  0  0  0
  6 18  1  0  0  0  0
  6 19  1  0  0  0  0
  6 20  1  0  0  0  0
  7  9  2  0  0  0  0
  8  9  1  0  0  0  0
  9 10  1  0  0  0  0
M  CHG  1   1   1
M  END
$$$$
