MPM
 OpenBabel04041915383D

 40 40  0  0  1  0  0  0  0  0999 V2000
   17.2537   52.3097   16.5309 C   0  0  0  0  0  0  0  0  0  0  0  0
   16.3046   53.2404   16.0683 C   0  0  0  0  0  0  0  0  0  0  0  0
   18.3307   51.9607   15.6921 C   0  0  0  0  0  0  0  0  0  0  0  0
   17.1975   51.7305   17.9153 C   0  0  0  0  0  0  0  0  0  0  0  0
   16.4298   53.7598   14.7824 C   0  0  0  0  0  0  0  0  0  0  0  0
   18.3560   52.5514   14.4273 C   0  0  0  0  0  0  0  0  0  0  0  0
   15.3211   53.6819   16.8928 O   0  0  0  0  0  0  0  0  0  0  0  0
   19.4614   51.0620   16.1377 C   0  0  0  0  0  0  0  0  0  0  0  0
   16.3942   52.2243   18.7605 N   0  0  0  0  0  0  0  0  0  0  0  0
   17.4449   53.4426   13.9457 N   0  0  0  0  0  0  0  0  0  0  0  0
   15.4136   54.7442   14.2579 C   0  0  0  0  0  0  0  0  0  0  0  0
   19.1481   49.7023   15.9594 O   0  0  0  0  0  0  0  0  0  0  0  0
   16.2641   51.8357   20.1695 C   0  0  2  0  0  0  0  0  0  0  0  0
   20.1856   48.6800   16.7269 P   0  0  0  0  0  0  0  0  0  0  0  0
   16.8030   53.0105   21.0163 C   0  0  0  0  0  0  0  0  0  0  0  0
   16.9496   50.5433   20.6121 C   0  0  0  0  0  0  0  0  0  0  0  0
   14.2438   51.6486   20.5115 P   0  0  0  0  0  0  0  0  0  0  0  0
   19.6565   47.2908   16.4083 O   0  0  0  0  0  0  0  0  0  0  0  0
   20.1364   49.0904   18.1849 O   0  0  0  0  0  0  0  0  0  0  0  0
   21.5378   48.9894   16.0583 O   0  0  0  0  0  0  0  0  0  0  0  0
   13.8792   50.2794   19.9361 O   0  0  0  0  0  0  0  0  0  0  0  0
   14.1653   51.7255   22.0430 O   0  0  0  0  0  0  0  0  0  0  0  0
   13.5724   52.8326   19.8047 O   0  0  0  0  0  0  0  0  0  0  0  0
   16.1834   54.3487   20.6620 C   0  0  0  0  0  0  0  0  0  0  0  0
   17.8966   50.9171   18.1815 H   0  0  0  0  0  0  0  0  0  0  0  0
   19.1676   52.3265   13.7398 H   0  0  0  0  0  0  0  0  0  0  0  0
   14.5787   54.1377   16.4957 H   0  0  0  0  0  0  0  0  0  0  0  0
   19.6986   51.2865   17.1811 H   0  0  0  0  0  0  0  0  0  0  0  0
   20.3633   51.3067   15.5677 H   0  0  0  0  0  0  0  0  0  0  0  0
   15.6380   55.0621   13.2316 H   0  0  0  0  0  0  0  0  0  0  0  0
   15.3950   55.6433   14.8818 H   0  0  0  0  0  0  0  0  0  0  0  0
   14.4074   54.2970   14.2455 H   0  0  0  0  0  0  0  0  0  0  0  0
   17.8886   53.0783   20.8544 H   0  0  0  0  0  0  0  0  0  0  0  0
   16.6493   52.8049   22.0775 H   0  0  0  0  0  0  0  0  0  0  0  0
   18.0370   50.5904   20.4659 H   0  0  0  0  0  0  0  0  0  0  0  0
   16.5716   49.6587   20.0949 H   0  0  0  0  0  0  0  0  0  0  0  0
   16.7884   50.3804   21.6885 H   0  0  0  0  0  0  0  0  0  0  0  0
   16.6567   55.1409   21.2464 H   0  0  0  0  0  0  0  0  0  0  0  0
   15.1176   54.3657   20.8938 H   0  0  0  0  0  0  0  0  0  0  0  0
   16.3133   54.5909   19.6027 H   0  0  0  0  0  0  0  0  0  0  0  0
  1  4  1  0  0  0  0
  1  3  2  0  0  0  0
  1  2  1  0  0  0  0
  2  7  1  0  0  0  0
  2  5  2  0  0  0  0
  3  6  1  0  0  0  0
  3  8  1  0  0  0  0
  4  9  2  0  0  0  0
  4 25  1  0  0  0  0
  5 11  1  0  0  0  0
  5 10  1  0  0  0  0
  6 10  2  0  0  0  0
  6 26  1  0  0  0  0
  7 27  1  0  0  0  0
  8 12  1  0  0  0  0
  8 28  1  0  0  0  0
  8 29  1  0  0  0  0
 11 30  1  0  0  0  0
 11 31  1  0  0  0  0
 11 32  1  0  0  0  0
 12 14  1  0  0  0  0
 13  9  1  6  0  0  0
 13 17  1  0  0  0  0
 13 16  1  0  0  0  0
 13 15  1  0  0  0  0
 14 20  2  0  0  0  0
 14 19  1  0  0  0  0
 14 18  1  0  0  0  0
 15 24  1  0  0  0  0
 15 33  1  0  0  0  0
 15 34  1  0  0  0  0
 16 35  1  0  0  0  0
 16 36  1  0  0  0  0
 16 37  1  0  0  0  0
 17 23  2  0  0  0  0
 17 22  1  0  0  0  0
 17 21  1  0  0  0  0
 24 38  1  0  0  0  0
 24 39  1  0  0  0  0
 24 40  1  0  0  0  0
M  END
$$$$
