MTM
 OpenBabel04041917463D

 38 40  0  0  1  0  0  0  0  0999 V2000
   56.1856   68.8170   22.6870 C   0  0  0  0  0  0  0  0  0  0  0  0
   55.5268   70.4590   23.0704 S   0  0  0  0  0  0  0  0  0  0  0  0
   56.2974   71.3908   21.7318 C   0  0  0  0  0  0  0  0  0  0  0  0
   57.7157   71.8614   22.0433 C   0  0  1  0  0  0  0  0  0  0  0  0
   58.2884   72.4263   20.7575 N   0  3  0  0  0  0  0  0  0  0  0  0
   57.6500   74.2839   22.1412 C   0  0  2  0  0  0  0  0  0  0  0  0
   58.5064   75.3446   22.5645 O   0  0  0  0  0  0  0  0  0  0  0  0
   57.8408   73.0305   23.0205 C   0  0  2  0  0  0  0  0  0  0  0  0
   59.1623   73.0044   23.5890 O   0  0  0  0  0  0  0  0  0  0  0  0
   57.9056   73.8806   20.6669 C   0  0  2  0  0  0  0  0  0  0  0  0
   56.7864   73.9999   19.6554 C   0  0  0  0  0  0  0  0  0  0  0  0
   56.8755   73.7275   18.3039 C   0  0  0  0  0  0  0  0  0  0  0  0
   55.6523   73.9089   17.6946 N   0  3  0  0  0  0  0  0  0  0  0  0
   54.7634   74.2915   18.6706 C   0  0  0  0  0  0  0  0  0  0  0  0
   53.4005   74.5944   18.6656 C   0  0  0  0  0  0  0  0  0  0  0  0
   52.6232   74.5603   17.5320 N   0  0  0  0  0  0  0  0  0  0  0  0
   52.8172   74.9289   19.8300 N   0  0  0  0  0  0  0  0  0  0  0  0
   53.5599   74.9573   20.9546 C   0  0  0  0  0  0  0  0  0  0  0  0
   54.8510   74.6632   21.0578 N   0  0  0  0  0  0  0  0  0  0  0  0
   55.4406   74.3634   19.8822 C   0  0  0  0  0  0  0  0  0  0  0  0
   55.8028   68.0984   23.4139 H   0  0  0  0  0  0  0  0  0  0  0  0
   57.2771   68.8260   22.7385 H   0  0  0  0  0  0  0  0  0  0  0  0
   55.8714   68.5064   21.6861 H   0  0  0  0  0  0  0  0  0  0  0  0
   55.6625   72.2481   21.5200 H   0  0  0  0  0  0  0  0  0  0  0  0
   56.3153   70.7661   20.8315 H   0  0  0  0  0  0  0  0  0  0  0  0
   58.3623   71.0218   22.3184 H   0  0  0  0  0  0  0  0  0  0  0  0
   59.3096   72.3324   20.7578 H   0  0  0  0  0  0  0  0  0  0  0  0
   56.6382   74.6357   22.2743 H   0  0  0  0  0  0  0  0  0  0  0  0
   59.4366   75.0646   22.4958 H   0  0  0  0  0  0  0  0  0  0  0  0
   57.1052   72.9469   23.8315 H   0  0  0  0  0  0  0  0  0  0  0  0
   59.2520   73.7565   24.2133 H   0  0  0  0  0  0  0  0  0  0  0  0
   58.7752   74.4125   20.2578 H   0  0  0  0  0  0  0  0  0  0  0  0
   57.7401   73.4228   17.7177 H   0  0  0  0  0  0  0  0  0  0  0  0
   55.4368   73.8012   16.6998 H   0  0  0  0  0  0  0  0  0  0  0  0
   51.6707   74.8086   17.6233 H   0  0  0  0  0  0  0  0  0  0  0  0
   53.0031   74.3213   16.6238 H   0  0  0  0  0  0  0  0  0  0  0  0
   53.0645   75.2338   21.8804 H   0  0  0  0  0  0  0  0  0  0  0  0
   57.9084   71.9237   19.9459 H   0  0  0  0  0  0  0  0  0  0  0  0
  1  2  1  0  0  0  0
  1 21  1  0  0  0  0
  1 22  1  0  0  0  0
  1 23  1  0  0  0  0
  2  3  1  0  0  0  0
  3  4  1  0  0  0  0
  3 24  1  0  0  0  0
  3 25  1  0  0  0  0
  4  5  1  0  0  0  0
  4  8  1  0  0  0  0
  4 26  1  1  0  0  0
  5 10  1  0  0  0  0
  5 27  1  0  0  0  0
  5 38  1  0  0  0  0
  6  7  1  0  0  0  0
  6  8  1  0  0  0  0
  6 10  1  0  0  0  0
  6 28  1  1  0  0  0
  7 29  1  0  0  0  0
  8  9  1  0  0  0  0
  8 30  1  1  0  0  0
  9 31  1  0  0  0  0
 10 11  1  0  0  0  0
 10 32  1  6  0  0  0
 11 12  1  0  0  0  0
 11 20  2  0  0  0  0
 12 13  2  0  0  0  0
 12 33  1  0  0  0  0
 13 14  1  0  0  0  0
 13 34  1  0  0  0  0
 14 15  2  0  0  0  0
 14 20  1  0  0  0  0
 15 16  1  0  0  0  0
 15 17  1  0  0  0  0
 16 35  1  0  0  0  0
 16 36  1  0  0  0  0
 17 18  1  0  0  0  0
 18 19  2  0  0  0  0
 18 37  1  0  0  0  0
 19 20  1  0  0  0  0
M  CHG  2   5   1  13   1
M  END
$$$$
