MTX
 OpenBabel04041914183D

 53 55  0  0  1  0  0  0  0  0999 V2000
   16.6033   65.5626   46.0426 N   0  0  0  0  0  0  0  0  0  0  0  0
   16.0380   65.7260   47.2354 C   0  0  0  0  0  0  0  0  0  0  0  0
   14.7653   65.2648   47.4430 N   0  0  0  0  0  0  0  0  0  0  0  0
   16.6377   66.3029   48.2881 N   0  0  0  0  0  0  0  0  0  0  0  0
   17.8736   66.7846   48.0924 C   0  0  0  0  0  0  0  0  0  0  0  0
   18.5199   67.3507   49.1966 N   0  0  0  0  0  0  0  0  0  0  0  0
   18.5439   66.6999   46.8873 C   0  0  0  0  0  0  0  0  0  0  0  0
   19.8012   67.1982   46.7473 N   0  0  0  0  0  0  0  0  0  0  0  0
   20.3756   67.0318   45.5411 C   0  0  0  0  0  0  0  0  0  0  0  0
   19.7023   66.3520   44.5357 C   0  0  0  0  0  0  0  0  0  0  0  0
   18.4479   65.8608   44.6911 N   0  0  0  0  0  0  0  0  0  0  0  0
   17.8337   66.0410   45.8716 C   0  0  0  0  0  0  0  0  0  0  0  0
   21.7399   67.6564   45.3657 C   0  0  0  0  0  0  0  0  0  0  0  0
   22.1431   67.8534   43.9766 N   0  0  0  0  0  0  0  0  0  0  0  0
   23.3617   67.1747   43.5763 C   0  0  0  0  0  0  0  0  0  0  0  0
   19.8900   70.1902   41.2977 C   0  0  0  0  0  0  0  0  0  0  0  0
   21.0409   69.5495   40.8657 C   0  0  0  0  0  0  0  0  0  0  0  0
   21.7901   68.8012   41.7640 C   0  0  0  0  0  0  0  0  0  0  0  0
   21.4333   68.6675   43.1117 C   0  0  0  0  0  0  0  0  0  0  0  0
   20.2852   69.3612   43.5191 C   0  0  0  0  0  0  0  0  0  0  0  0
   19.5145   70.0978   42.6316 C   0  0  0  0  0  0  0  0  0  0  0  0
   19.0974   70.9757   40.3222 C   0  0  0  0  0  0  0  0  0  0  0  0
   19.5997   71.1685   39.2050 O   0  0  0  0  0  0  0  0  0  0  0  0
   17.8973   71.4318   40.7181 N   0  0  0  0  0  0  0  0  0  0  0  0
   17.0199   72.3304   39.9368 C   0  0  2  0  0  0  0  0  0  0  0  0
   16.2700   73.3013   40.9191 C   0  0  0  0  0  0  0  0  0  0  0  0
   16.2005   72.8687   42.1213 O   0  0  0  0  0  0  0  0  0  0  0  0
   15.8599   74.3982   40.4498 O   0  0  0  0  0  0  0  0  0  0  0  0
   15.8835   71.5254   39.2849 C   0  0  0  0  0  0  0  0  0  0  0  0
   16.3016   70.5435   38.1794 C   0  0  0  0  0  0  0  0  0  0  0  0
   16.6103   70.9381   36.7221 C   0  0  0  0  0  0  0  0  0  0  0  0
   17.0690   69.9863   36.0132 O   0  0  0  0  0  0  0  0  0  0  0  0
   16.3132   72.1073   36.3554 O   0  0  0  0  0  0  0  0  0  0  0  0
   14.2368   64.9026   46.6678 H   0  0  0  0  0  0  0  0  0  0  0  0
   14.3420   65.4933   48.3257 H   0  0  0  0  0  0  0  0  0  0  0  0
   19.4326   67.7655   49.0513 H   0  0  0  0  0  0  0  0  0  0  0  0
   18.0190   67.4537   50.0590 H   0  0  0  0  0  0  0  0  0  0  0  0
   20.1409   66.2073   43.5533 H   0  0  0  0  0  0  0  0  0  0  0  0
   22.4540   66.9922   45.8664 H   0  0  0  0  0  0  0  0  0  0  0  0
   21.7871   68.6148   45.9014 H   0  0  0  0  0  0  0  0  0  0  0  0
   23.6458   67.3108   42.5362 H   0  0  0  0  0  0  0  0  0  0  0  0
   23.2413   66.0990   43.7212 H   0  0  0  0  0  0  0  0  0  0  0  0
   24.1959   67.5425   44.1762 H   0  0  0  0  0  0  0  0  0  0  0  0
   21.3654   69.6178   39.8284 H   0  0  0  0  0  0  0  0  0  0  0  0
   22.6643   68.3219   41.3437 H   0  0  0  0  0  0  0  0  0  0  0  0
   19.9186   69.3310   44.5445 H   0  0  0  0  0  0  0  0  0  0  0  0
   18.6254   70.5876   43.0114 H   0  0  0  0  0  0  0  0  0  0  0  0
   17.5383   71.3516   41.6689 H   0  0  0  0  0  0  0  0  0  0  0  0
   17.5946   72.8916   39.1973 H   0  0  0  0  0  0  0  0  0  0  0  0
   15.1232   72.2131   38.9009 H   0  0  0  0  0  0  0  0  0  0  0  0
   15.4004   70.9495   40.0900 H   0  0  0  0  0  0  0  0  0  0  0  0
   15.4869   69.8080   38.1004 H   0  0  0  0  0  0  0  0  0  0  0  0
   17.1713   69.9770   38.5243 H   0  0  0  0  0  0  0  0  0  0  0  0
  1 12  2  0  0  0  0
  1  2  1  0  0  0  0
  2  4  2  0  0  0  0
  2  3  1  0  0  0  0
  3 34  1  0  0  0  0
  3 35  1  0  0  0  0
  4  5  1  0  0  0  0
  5  7  2  0  0  0  0
  5  6  1  0  0  0  0
  6 36  1  0  0  0  0
  6 37  1  0  0  0  0
  7 12  1  0  0  0  0
  7  8  1  0  0  0  0
  8  9  2  0  0  0  0
  9 13  1  0  0  0  0
  9 10  1  0  0  0  0
 10 11  2  0  0  0  0
 10 38  1  0  0  0  0
 11 12  1  0  0  0  0
 13 14  1  0  0  0  0
 13 39  1  0  0  0  0
 13 40  1  0  0  0  0
 14 19  1  0  0  0  0
 14 15  1  0  0  0  0
 15 41  1  0  0  0  0
 15 42  1  0  0  0  0
 15 43  1  0  0  0  0
 16 17  1  0  0  0  0
 16 22  1  0  0  0  0
 16 21  2  0  0  0  0
 17 18  2  0  0  0  0
 17 44  1  0  0  0  0
 18 19  1  0  0  0  0
 18 45  1  0  0  0  0
 19 20  2  0  0  0  0
 20 21  1  0  0  0  0
 20 46  1  0  0  0  0
 21 47  1  0  0  0  0
 22 24  1  0  0  0  0
 22 23  2  0  0  0  0
 24 25  1  0  0  0  0
 24 48  1  0  0  0  0
 25 29  1  0  0  0  0
 25 26  1  0  0  0  0
 25 49  1  6  0  0  0
 26 28  2  0  0  0  0
 26 27  1  0  0  0  0
 29 30  1  0  0  0  0
 29 50  1  0  0  0  0
 29 51  1  0  0  0  0
 30 31  1  0  0  0  0
 30 52  1  0  0  0  0
 30 53  1  0  0  0  0
 31 33  2  0  0  0  0
 31 32  1  0  0  0  0
M  END
$$$$
