MTX
 OpenBabel04041914183D

 53 55  0  0  1  0  0  0  0  0999 V2000
   16.2083   65.1691   46.3118 N   0  0  0  0  0  0  0  0  0  0  0  0
   15.7148   65.3667   47.5330 C   0  0  0  0  0  0  0  0  0  0  0  0
   14.4979   64.8001   47.8183 N   0  0  0  0  0  0  0  0  0  0  0  0
   16.3455   66.0127   48.5178 N   0  0  0  0  0  0  0  0  0  0  0  0
   17.5840   66.4528   48.2444 C   0  0  0  0  0  0  0  0  0  0  0  0
   18.3353   66.9570   49.3182 N   0  0  0  0  0  0  0  0  0  0  0  0
   18.1990   66.2928   47.0148 C   0  0  0  0  0  0  0  0  0  0  0  0
   19.4584   66.7704   46.7761 N   0  0  0  0  0  0  0  0  0  0  0  0
   19.9430   66.5815   45.5286 C   0  0  0  0  0  0  0  0  0  0  0  0
   19.1957   65.8853   44.5952 C   0  0  0  0  0  0  0  0  0  0  0  0
   17.9580   65.3936   44.8517 N   0  0  0  0  0  0  0  0  0  0  0  0
   17.4304   65.6216   46.0597 C   0  0  0  0  0  0  0  0  0  0  0  0
   21.2858   67.2199   45.2425 C   0  0  0  0  0  0  0  0  0  0  0  0
   21.6290   67.3637   43.8186 N   0  0  0  0  0  0  0  0  0  0  0  0
   22.5847   66.4016   43.2883 C   0  0  0  0  0  0  0  0  0  0  0  0
   19.3164   69.7938   41.2495 C   0  0  0  0  0  0  0  0  0  0  0  0
   20.3611   69.0332   40.7516 C   0  0  0  0  0  0  0  0  0  0  0  0
   21.1194   68.2485   41.6141 C   0  0  0  0  0  0  0  0  0  0  0  0
   20.8809   68.2030   42.9950 C   0  0  0  0  0  0  0  0  0  0  0  0
   19.8500   69.0377   43.4748 C   0  0  0  0  0  0  0  0  0  0  0  0
   19.0536   69.8098   42.6157 C   0  0  0  0  0  0  0  0  0  0  0  0
   18.5732   70.6151   40.2807 C   0  0  0  0  0  0  0  0  0  0  0  0
   19.2015   71.0667   39.3212 O   0  0  0  0  0  0  0  0  0  0  0  0
   17.2479   70.7943   40.5247 N   0  0  0  0  0  0  0  0  0  0  0  0
   16.4653   71.8483   39.8522 C   0  0  2  0  0  0  0  0  0  0  0  0
   15.8813   72.8844   40.8820 C   0  0  0  0  0  0  0  0  0  0  0  0
   15.7817   72.4363   42.0704 O   0  0  0  0  0  0  0  0  0  0  0  0
   15.5987   74.0380   40.4554 O   0  0  0  0  0  0  0  0  0  0  0  0
   15.2657   71.2182   39.1415 C   0  0  0  0  0  0  0  0  0  0  0  0
   15.6651   70.2865   37.9946 C   0  0  0  0  0  0  0  0  0  0  0  0
   16.2128   70.9553   36.7272 C   0  0  0  0  0  0  0  0  0  0  0  0
   16.8614   70.1769   35.9673 O   0  0  0  0  0  0  0  0  0  0  0  0
   15.8942   72.1608   36.5317 O   0  0  0  0  0  0  0  0  0  0  0  0
   13.9567   64.5641   46.9969 H   0  0  0  0  0  0  0  0  0  0  0  0
   14.0434   65.1880   48.6292 H   0  0  0  0  0  0  0  0  0  0  0  0
   19.1411   67.5136   49.0439 H   0  0  0  0  0  0  0  0  0  0  0  0
   17.8074   67.2106   50.1394 H   0  0  0  0  0  0  0  0  0  0  0  0
   19.5456   65.7181   43.5760 H   0  0  0  0  0  0  0  0  0  0  0  0
   22.0484   66.6216   45.7518 H   0  0  0  0  0  0  0  0  0  0  0  0
   21.3176   68.2060   45.7252 H   0  0  0  0  0  0  0  0  0  0  0  0
   22.8637   66.5229   42.2457 H   0  0  0  0  0  0  0  0  0  0  0  0
   22.1914   65.3751   43.4041 H   0  0  0  0  0  0  0  0  0  0  0  0
   23.5278   66.4674   43.8461 H   0  0  0  0  0  0  0  0  0  0  0  0
   20.6005   69.0489   39.6913 H   0  0  0  0  0  0  0  0  0  0  0  0
   21.9060   67.6844   41.1218 H   0  0  0  0  0  0  0  0  0  0  0  0
   19.6145   69.1199   44.5314 H   0  0  0  0  0  0  0  0  0  0  0  0
   18.2654   70.4403   43.0201 H   0  0  0  0  0  0  0  0  0  0  0  0
   16.8054   70.4470   41.3649 H   0  0  0  0  0  0  0  0  0  0  0  0
   17.1140   72.3783   39.1457 H   0  0  0  0  0  0  0  0  0  0  0  0
   14.5954   72.0023   38.7679 H   0  0  0  0  0  0  0  0  0  0  0  0
   14.6836   70.6388   39.8719 H   0  0  0  0  0  0  0  0  0  0  0  0
   14.7708   69.7333   37.6789 H   0  0  0  0  0  0  0  0  0  0  0  0
   16.3806   69.5324   38.3436 H   0  0  0  0  0  0  0  0  0  0  0  0
  1 12  2  0  0  0  0
  1  2  1  0  0  0  0
  2  4  2  0  0  0  0
  2  3  1  0  0  0  0
  3 34  1  0  0  0  0
  3 35  1  0  0  0  0
  4  5  1  0  0  0  0
  5  7  2  0  0  0  0
  5  6  1  0  0  0  0
  6 36  1  0  0  0  0
  6 37  1  0  0  0  0
  7 12  1  0  0  0  0
  7  8  1  0  0  0  0
  8  9  2  0  0  0  0
  9 13  1  0  0  0  0
  9 10  1  0  0  0  0
 10 11  2  0  0  0  0
 10 38  1  0  0  0  0
 11 12  1  0  0  0  0
 13 14  1  0  0  0  0
 13 39  1  0  0  0  0
 13 40  1  0  0  0  0
 14 19  1  0  0  0  0
 14 15  1  0  0  0  0
 15 41  1  0  0  0  0
 15 42  1  0  0  0  0
 15 43  1  0  0  0  0
 16 17  1  0  0  0  0
 16 22  1  0  0  0  0
 16 21  2  0  0  0  0
 17 18  2  0  0  0  0
 17 44  1  0  0  0  0
 18 19  1  0  0  0  0
 18 45  1  0  0  0  0
 19 20  2  0  0  0  0
 20 21  1  0  0  0  0
 20 46  1  0  0  0  0
 21 47  1  0  0  0  0
 22 24  1  0  0  0  0
 22 23  2  0  0  0  0
 24 25  1  0  0  0  0
 24 48  1  0  0  0  0
 25 29  1  0  0  0  0
 25 26  1  0  0  0  0
 25 49  1  6  0  0  0
 26 28  2  0  0  0  0
 26 27  1  0  0  0  0
 29 30  1  0  0  0  0
 29 50  1  0  0  0  0
 29 51  1  0  0  0  0
 30 31  1  0  0  0  0
 30 52  1  0  0  0  0
 30 53  1  0  0  0  0
 31 33  2  0  0  0  0
 31 32  1  0  0  0  0
M  END
$$$$
