MXA
 OpenBabel04041917043D

 43 45  0  0  0  0  0  0  0  0999 V2000
   28.7720   13.1158   -4.2833 N   0  0  0  0  0  0  0  0  0  0  0  0
   27.5709   12.5986   -4.4594 C   0  0  0  0  0  0  0  0  0  0  0  0
   27.1540   12.3758   -5.7413 N   0  0  0  0  0  0  0  0  0  0  0  0
   26.7237   12.3182   -3.4803 N   0  0  0  0  0  0  0  0  0  0  0  0
   27.0923   12.6473   -2.2352 C   0  0  0  0  0  0  0  0  0  0  0  0
   26.0336   12.4963   -1.3460 N   0  0  0  0  0  0  0  0  0  0  0  0
   28.3476   13.2278   -1.9174 C   0  0  0  0  0  0  0  0  0  0  0  0
   28.9015   13.6513   -0.6437 C   0  0  0  0  0  0  0  0  0  0  0  0
   28.2072   13.4804    0.6809 C   0  0  0  0  0  0  0  0  0  0  0  0
   30.1787   14.2581   -0.6092 C   0  0  0  0  0  0  0  0  0  0  0  0
   30.8525   14.3745   -1.8093 C   0  0  0  0  0  0  0  0  0  0  0  0
   30.3653   13.9585   -2.9872 N   0  0  0  0  0  0  0  0  0  0  0  0
   29.1491   13.4227   -3.0530 C   0  0  0  0  0  0  0  0  0  0  0  0
   30.7764   14.8749    0.6396 C   0  0  0  0  0  0  0  0  0  0  0  0
   32.2063   14.4807    0.9345 C   0  0  0  0  0  0  0  0  0  0  0  0
   33.2921   15.3507    0.8782 C   0  0  0  0  0  0  0  0  0  0  0  0
   32.9635   16.6099    0.4721 O   0  0  0  0  0  0  0  0  0  0  0  0
   34.0079   17.5337    0.2476 C   0  0  0  0  0  0  0  0  0  0  0  0
   34.5591   14.8815    1.2438 C   0  0  0  0  0  0  0  0  0  0  0  0
   34.7338   13.5429    1.6635 C   0  0  0  0  0  0  0  0  0  0  0  0
   33.6466   12.6716    1.7022 C   0  0  0  0  0  0  0  0  0  0  0  0
   33.8286   11.3750    2.1192 O   0  0  0  0  0  0  0  0  0  0  0  0
   32.6092   10.6191    2.1573 C   0  0  0  0  0  0  0  0  0  0  0  0
   32.3870   13.1622    1.3264 C   0  0  0  0  0  0  0  0  0  0  0  0
   27.8405   12.4864   -6.4688 H   0  0  0  0  0  0  0  0  0  0  0  0
   26.3006   11.8614   -5.8668 H   0  0  0  0  0  0  0  0  0  0  0  0
   26.2283   12.0890   -0.4484 H   0  0  0  0  0  0  0  0  0  0  0  0
   25.3087   11.9718   -1.8316 H   0  0  0  0  0  0  0  0  0  0  0  0
   27.2199   13.0483    0.6556 H   0  0  0  0  0  0  0  0  0  0  0  0
   28.0826   14.4567    1.1590 H   0  0  0  0  0  0  0  0  0  0  0  0
   28.8060   12.8231    1.3229 H   0  0  0  0  0  0  0  0  0  0  0  0
   31.8359   14.8355   -1.8675 H   0  0  0  0  0  0  0  0  0  0  0  0
   30.2262   14.5632    1.5325 H   0  0  0  0  0  0  0  0  0  0  0  0
   30.6465   15.9598    0.5920 H   0  0  0  0  0  0  0  0  0  0  0  0
   33.5441   18.4701   -0.0735 H   0  0  0  0  0  0  0  0  0  0  0  0
   34.6683   17.1858   -0.5527 H   0  0  0  0  0  0  0  0  0  0  0  0
   34.5617   17.7317    1.1683 H   0  0  0  0  0  0  0  0  0  0  0  0
   35.4284   15.5314    1.2343 H   0  0  0  0  0  0  0  0  0  0  0  0
   35.7196   13.1938    1.9626 H   0  0  0  0  0  0  0  0  0  0  0  0
   32.8061    9.5981    2.4826 H   0  0  0  0  0  0  0  0  0  0  0  0
   32.1609   10.5582    1.1563 H   0  0  0  0  0  0  0  0  0  0  0  0
   31.9047   11.0643    2.8733 H   0  0  0  0  0  0  0  0  0  0  0  0
   31.5151   12.5415    1.3460 H   0  0  0  0  0  0  0  0  0  0  0  0
  1  2  2  0  0  0  0
  1 13  1  0  0  0  0
  2  3  1  0  0  0  0
  2  4  1  0  0  0  0
  3 25  1  0  0  0  0
  3 26  1  0  0  0  0
  4  5  2  0  0  0  0
  5  6  1  0  0  0  0
  5  7  1  0  0  0  0
  6 27  1  0  0  0  0
  6 28  1  0  0  0  0
  7  8  2  0  0  0  0
  7 13  1  0  0  0  0
  8  9  1  0  0  0  0
  8 10  1  0  0  0  0
  9 29  1  0  0  0  0
  9 30  1  0  0  0  0
  9 31  1  0  0  0  0
 10 11  2  0  0  0  0
 10 14  1  0  0  0  0
 11 12  1  0  0  0  0
 11 32  1  0  0  0  0
 12 13  2  0  0  0  0
 14 15  1  0  0  0  0
 14 33  1  0  0  0  0
 14 34  1  0  0  0  0
 15 16  2  0  0  0  0
 15 24  1  0  0  0  0
 16 17  1  0  0  0  0
 16 19  1  0  0  0  0
 17 18  1  0  0  0  0
 18 35  1  0  0  0  0
 18 36  1  0  0  0  0
 18 37  1  0  0  0  0
 19 20  2  0  0  0  0
 19 38  1  0  0  0  0
 20 21  1  0  0  0  0
 20 39  1  0  0  0  0
 21 22  1  0  0  0  0
 21 24  2  0  0  0  0
 22 23  1  0  0  0  0
 23 40  1  0  0  0  0
 23 41  1  0  0  0  0
 23 42  1  0  0  0  0
 24 43  1  0  0  0  0
M  END
$$$$
