MZP
 OpenBabel04041916253D

 34 35  0  0  1  0  0  0  0  0999 V2000
  -21.5431   34.8666   48.5614 P   0  0  0  0  0  0  0  0  0  0  0  0
  -20.1858   35.2324   47.9866 O   0  0  0  0  0  0  0  0  0  0  0  0
  -21.7561   35.2898   50.0090 O   0  0  0  0  0  0  0  0  0  0  0  0
  -22.0218   33.4584   48.2400 O   0  0  0  0  0  0  0  0  0  0  0  0
  -22.5736   35.8246   47.7324 O   0  0  0  0  0  0  0  0  0  0  0  0
  -23.9537   35.7282   48.0347 C   0  0  0  0  0  0  0  0  0  0  0  0
  -24.6426   36.8253   47.2223 C   0  0  1  0  0  0  0  0  0  0  0  0
  -24.5831   36.5115   45.8069 O   0  0  0  0  0  0  0  0  0  0  0  0
  -26.1340   36.9928   47.4972 C   0  0  1  0  0  0  0  0  0  0  0  0
  -26.4804   37.7862   48.6278 O   0  0  0  0  0  0  0  0  0  0  0  0
  -26.6263   37.6739   46.2271 C   0  0  1  0  0  0  0  0  0  0  0  0
  -26.4443   39.1050   46.2862 O   0  0  0  0  0  0  0  0  0  0  0  0
  -25.7107   37.0920   45.1584 C   0  0  2  0  0  0  0  0  0  0  0  0
  -26.2863   36.1176   44.2732 N   0  0  0  0  0  0  0  0  0  0  0  0
  -27.1972   35.0553   44.5860 C   0  0  0  0  0  0  0  0  0  0  0  0
  -27.4232   34.2882   43.3277 N   0  0  0  0  0  0  0  0  0  0  0  0
  -26.6081   34.8343   42.4599 C   0  0  0  0  0  0  0  0  0  0  0  0
  -26.5094   34.3763   41.0234 C   0  0  0  0  0  0  0  0  0  0  0  0
  -27.1419   33.4287   40.6143 O   0  0  0  0  0  0  0  0  0  0  0  0
  -25.8561   35.9976   42.9984 C   0  0  0  0  0  0  0  0  0  0  0  0
  -25.6758   35.0965   40.2057 N   0  0  0  0  0  0  0  0  0  0  0  0
  -25.1154   36.6911   42.3308 O   0  0  0  0  0  0  0  0  0  0  0  0
  -24.1213   35.8793   49.1064 H   0  0  0  0  0  0  0  0  0  0  0  0
  -24.3285   34.7394   47.7469 H   0  0  0  0  0  0  0  0  0  0  0  0
  -24.1072   37.7702   47.3915 H   0  0  0  0  0  0  0  0  0  0  0  0
  -26.6087   36.0087   47.5863 H   0  0  0  0  0  0  0  0  0  0  0  0
  -25.8917   38.5636   48.6060 H   0  0  0  0  0  0  0  0  0  0  0  0
  -27.6887   37.5092   46.0321 H   0  0  0  0  0  0  0  0  0  0  0  0
  -26.9738   39.4251   47.0358 H   0  0  0  0  0  0  0  0  0  0  0  0
  -25.3327   37.9019   44.5265 H   0  0  0  0  0  0  0  0  0  0  0  0
  -28.1551   35.4791   44.9056 H   0  0  0  0  0  0  0  0  0  0  0  0
  -26.8053   34.3883   45.3608 H   0  0  0  0  0  0  0  0  0  0  0  0
  -25.5318   34.7689   39.2601 H   0  0  0  0  0  0  0  0  0  0  0  0
  -25.1032   35.8575   40.5605 H   0  0  0  0  0  0  0  0  0  0  0  0
  1  2  2  0  0  0  0
  1  3  1  0  0  0  0
  1  4  1  0  0  0  0
  1  5  1  0  0  0  0
  5  6  1  0  0  0  0
  6  7  1  0  0  0  0
  6 23  1  0  0  0  0
  6 24  1  0  0  0  0
  7  8  1  0  0  0  0
  7  9  1  0  0  0  0
  7 25  1  1  0  0  0
  8 13  1  0  0  0  0
  9 10  1  0  0  0  0
  9 11  1  0  0  0  0
  9 26  1  1  0  0  0
 10 27  1  0  0  0  0
 11 12  1  0  0  0  0
 11 13  1  0  0  0  0
 11 28  1  6  0  0  0
 12 29  1  0  0  0  0
 13 14  1  0  0  0  0
 13 30  1  6  0  0  0
 14 15  1  0  0  0  0
 14 20  1  0  0  0  0
 15 16  1  0  0  0  0
 15 31  1  0  0  0  0
 15 32  1  0  0  0  0
 16 17  2  0  0  0  0
 17 18  1  0  0  0  0
 17 20  1  0  0  0  0
 18 19  2  0  0  0  0
 18 21  1  0  0  0  0
 20 22  2  0  0  0  0
 21 33  1  0  0  0  0
 21 34  1  0  0  0  0
M  END
$$$$
