N1T
 OpenBabel04041916593D

 43 44  0  0  0  0  0  0  0  0999 V2000
   15.2233   71.6608   26.5150 C   0  0  0  0  0  0  0  0  0  0  0  0
   14.2617   72.5836   26.1450 C   0  0  0  0  0  0  0  0  0  0  0  0
   12.8775   72.1404   25.7732 C   0  0  0  0  0  0  0  0  0  0  0  0
   14.5129   73.9159   26.1635 N   0  0  0  0  0  0  0  0  0  0  0  0
   15.7371   74.3505   26.5032 C   0  0  0  0  0  0  0  0  0  0  0  0
   15.8117   75.7305   26.6945 N   0  0  0  0  0  0  0  0  0  0  0  0
   16.7893   73.4956   26.8174 C   0  0  0  0  0  0  0  0  0  0  0  0
   16.4992   72.1195   26.8384 C   0  0  0  0  0  0  0  0  0  0  0  0
   18.1622   74.0041   27.2080 C   0  0  0  0  0  0  0  0  0  0  0  0
   18.9352   74.4637   26.0446 N   0  3  0  0  0  0  0  0  0  0  0  0
   19.0138   75.7534   25.7446 C   0  0  0  0  0  0  0  0  0  0  0  0
   19.8383   76.0058   24.2852 S   0  0  0  0  0  0  0  0  0  0  0  0
   20.1216   74.3247   24.0714 C   0  0  0  0  0  0  0  0  0  0  0  0
   19.6846   73.6463   25.1955 C   0  0  0  0  0  0  0  0  0  0  0  0
   19.8575   72.2101   25.5079 C   0  0  0  0  0  0  0  0  0  0  0  0
   20.6629   73.7468   22.7749 C   0  0  0  0  0  0  0  0  0  0  0  0
   21.5935   74.6443   21.9475 C   0  0  0  0  0  0  0  0  0  0  0  0
   20.7795   75.6827   21.4832 O   0  0  0  0  0  0  0  0  0  0  0  0
   20.8653   76.1950   19.9451 P   0  0  2  0  0  0  0  0  0  0  0  0
   19.3875   76.4650   19.6283 O   0  0  0  0  0  0  0  0  0  0  0  0
   21.5423   75.1003   19.1415 O   0  0  0  0  0  0  0  0  0  0  0  0
   21.6232   77.5682   20.1672 O   0  0  0  0  0  0  0  0  0  0  0  0
   23.1145   78.1704   20.0534 P   0  0  0  0  0  0  0  0  0  0  0  0
   23.0076   79.5400   20.7354 O   0  0  0  0  0  0  0  0  0  0  0  0
   23.4056   78.2896   18.5623 O   0  0  0  0  0  0  0  0  0  0  0  0
   24.0371   77.2268   20.8267 O   0  0  0  0  0  0  0  0  0  0  0  0
   14.9853   70.6031   26.5626 H   0  0  0  0  0  0  0  0  0  0  0  0
   12.2757   72.9846   25.4221 H   0  0  0  0  0  0  0  0  0  0  0  0
   12.3781   71.7040   26.6437 H   0  0  0  0  0  0  0  0  0  0  0  0
   12.9138   71.3954   24.9724 H   0  0  0  0  0  0  0  0  0  0  0  0
   16.5435   76.2094   26.2027 H   0  0  0  0  0  0  0  0  0  0  0  0
   14.9116   76.0879   26.3433 H   0  0  0  0  0  0  0  0  0  0  0  0
   17.2450   71.3914   27.1462 H   0  0  0  0  0  0  0  0  0  0  0  0
   18.7237   73.2123   27.7256 H   0  0  0  0  0  0  0  0  0  0  0  0
   18.0680   74.8069   27.9440 H   0  0  0  0  0  0  0  0  0  0  0  0
   18.5881   76.5688   26.3092 H   0  0  0  0  0  0  0  0  0  0  0  0
   20.6239   71.7490   24.8783 H   0  0  0  0  0  0  0  0  0  0  0  0
   18.9251   71.6672   25.3493 H   0  0  0  0  0  0  0  0  0  0  0  0
   20.1899   72.0688   26.5411 H   0  0  0  0  0  0  0  0  0  0  0  0
   19.7763   73.5059   22.1698 H   0  0  0  0  0  0  0  0  0  0  0  0
   21.1691   72.7989   22.9852 H   0  0  0  0  0  0  0  0  0  0  0  0
   22.0141   74.0349   21.1439 H   0  0  0  0  0  0  0  0  0  0  0  0
   22.4128   75.0352   22.5558 H   0  0  0  0  0  0  0  0  0  0  0  0
  1  8  2  0  0  0  0
  1  2  1  0  0  0  0
  1 27  1  0  0  0  0
  2  4  2  0  0  0  0
  2  3  1  0  0  0  0
  3 28  1  0  0  0  0
  3 29  1  0  0  0  0
  3 30  1  0  0  0  0
  4  5  1  0  0  0  0
  5  7  2  0  0  0  0
  5  6  1  0  0  0  0
  6 31  1  0  0  0  0
  6 32  1  0  0  0  0
  7  9  1  0  0  0  0
  7  8  1  0  0  0  0
  8 33  1  0  0  0  0
  9 10  1  0  0  0  0
  9 34  1  0  0  0  0
  9 35  1  0  0  0  0
 10 14  1  0  0  0  0
 10 11  2  0  0  0  0
 11 12  1  0  0  0  0
 11 36  1  0  0  0  0
 12 13  1  0  0  0  0
 13 16  1  0  0  0  0
 13 14  2  0  0  0  0
 14 15  1  0  0  0  0
 15 37  1  0  0  0  0
 15 38  1  0  0  0  0
 15 39  1  0  0  0  0
 16 17  1  0  0  0  0
 16 40  1  0  0  0  0
 16 41  1  0  0  0  0
 17 18  1  0  0  0  0
 17 42  1  0  0  0  0
 17 43  1  0  0  0  0
 19 18  1  1  0  0  0
 19 22  1  0  0  0  0
 19 21  2  0  0  0  0
 19 20  1  0  0  0  0
 22 23  1  0  0  0  0
 23 26  2  0  0  0  0
 23 25  1  0  0  0  0
 23 24  1  0  0  0  0
M  CHG  1  10   1
M  END
$$$$
