NAY
 OpenBabel04041914353D

 38 37  0  0  1  0  0  0  0  0999 V2000
    2.0729   14.3328    6.2558 C   0  0  0  0  0  0  0  0  0  0  0  0
    2.8040   13.3276    5.9882 O   0  0  0  0  0  0  0  0  0  0  0  0
    1.0053   14.6765    5.6645 O   0  0  0  0  0  0  0  0  0  0  0  0
    2.4851   15.2177    7.4409 C   0  0  0  0  0  0  0  0  0  0  0  0
    3.6686   15.2200    7.7818 O   0  0  0  0  0  0  0  0  0  0  0  0
    1.4312   16.0615    8.1174 C   0  0  0  0  0  0  0  0  0  0  0  0
    1.5338   15.9815    9.6476 C   0  0  0  0  0  0  0  0  0  0  0  0
    0.1474   15.7835   10.3147 C   0  0  1  0  0  0  0  0  0  0  0  0
    0.1230   14.4922   11.0065 N   0  0  0  0  0  0  0  0  0  0  0  0
   -0.9483   13.6288   10.9203 C   0  0  0  0  0  0  0  0  0  0  0  0
   -0.7230   12.3239   11.6300 C   0  0  0  0  0  0  0  0  0  0  0  0
   -2.0022   13.8787   10.3519 O   0  0  0  0  0  0  0  0  0  0  0  0
   -0.1772   18.1934   10.4994 O   0  0  0  0  0  0  0  0  0  0  0  0
   -0.2214   16.9685   11.2545 C   0  0  1  0  0  0  0  0  0  0  0  0
   -1.6393   16.8421   11.8703 C   0  0  2  0  0  0  0  0  0  0  0  0
   -2.6429   16.7662   10.8490 O   0  0  0  0  0  0  0  0  0  0  0  0
   -2.0334   18.0389   12.7505 C   0  0  2  0  0  0  0  0  0  0  0  0
   -0.9867   18.3684   13.6668 O   0  0  0  0  0  0  0  0  0  0  0  0
   -3.3680   17.7881   13.4824 C   0  0  0  0  0  0  0  0  0  0  0  0
   -3.2552   16.7719   14.4764 O   0  0  0  0  0  0  0  0  0  0  0  0
    0.4475   15.7319    7.7764 H   0  0  0  0  0  0  0  0  0  0  0  0
    1.5630   17.0960    7.7808 H   0  0  0  0  0  0  0  0  0  0  0  0
    2.0154   16.9014   10.0097 H   0  0  0  0  0  0  0  0  0  0  0  0
    2.2122   15.1692    9.9419 H   0  0  0  0  0  0  0  0  0  0  0  0
   -0.6172   15.7507    9.5307 H   0  0  0  0  0  0  0  0  0  0  0  0
    0.9565   14.1899   11.4962 H   0  0  0  0  0  0  0  0  0  0  0  0
   -1.6264   11.7115   11.5478 H   0  0  0  0  0  0  0  0  0  0  0  0
   -0.5160   12.5060   12.6869 H   0  0  0  0  0  0  0  0  0  0  0  0
    0.1098   11.7909   11.1663 H   0  0  0  0  0  0  0  0  0  0  0  0
   -0.0917   18.9116   11.1532 H   0  0  0  0  0  0  0  0  0  0  0  0
    0.5299   17.0340   12.0514 H   0  0  0  0  0  0  0  0  0  0  0  0
   -1.6758   15.9213   12.4608 H   0  0  0  0  0  0  0  0  0  0  0  0
   -2.2885   17.2277   10.0647 H   0  0  0  0  0  0  0  0  0  0  0  0
   -2.1869   18.9160   12.1099 H   0  0  0  0  0  0  0  0  0  0  0  0
   -1.3676   18.9694   14.3317 H   0  0  0  0  0  0  0  0  0  0  0  0
   -4.1705   17.5164   12.7877 H   0  0  0  0  0  0  0  0  0  0  0  0
   -3.6744   18.7000   14.0042 H   0  0  0  0  0  0  0  0  0  0  0  0
   -3.1706   15.9240   14.0031 H   0  0  0  0  0  0  0  0  0  0  0  0
  1  4  1  0  0  0  0
  1  3  2  0  0  0  0
  1  2  1  0  0  0  0
  4  6  1  0  0  0  0
  4  5  2  0  0  0  0
  6  7  1  0  0  0  0
  6 21  1  0  0  0  0
  6 22  1  0  0  0  0
  7  8  1  0  0  0  0
  7 23  1  0  0  0  0
  7 24  1  0  0  0  0
  8 14  1  0  0  0  0
  8  9  1  0  0  0  0
  8 25  1  6  0  0  0
  9 10  1  0  0  0  0
  9 26  1  0  0  0  0
 10 12  2  0  0  0  0
 10 11  1  0  0  0  0
 11 27  1  0  0  0  0
 11 28  1  0  0  0  0
 11 29  1  0  0  0  0
 13 14  1  0  0  0  0
 13 30  1  0  0  0  0
 14 15  1  0  0  0  0
 14 31  1  1  0  0  0
 15 17  1  0  0  0  0
 15 16  1  0  0  0  0
 15 32  1  1  0  0  0
 16 33  1  0  0  0  0
 17 19  1  0  0  0  0
 17 18  1  0  0  0  0
 17 34  1  6  0  0  0
 18 35  1  0  0  0  0
 19 20  1  0  0  0  0
 19 36  1  0  0  0  0
 19 37  1  0  0  0  0
 20 38  1  0  0  0  0
M  END
$$$$
