NCH
 OpenBabel04041914183D

 37 37  0  0  0  0  0  0  0  0999 V2000
  105.9081   23.7612   17.6420 O   0  0  0  0  0  0  0  0  0  0  0  0
  106.6302   23.7483   18.9713 P   0  0  1  0  0  0  0  0  0  0  0  0
  107.5644   22.6264   19.3301 O   0  0  0  0  0  0  0  0  0  0  0  0
  107.2897   25.2142   19.3057 O   0  0  0  0  0  0  0  0  0  0  0  0
  105.4370   23.6207   20.0961 O   0  0  0  0  0  0  0  0  0  0  0  0
  104.5087   22.6259   19.6777 C   0  0  0  0  0  0  0  0  0  0  0  0
  103.8591   21.8224   20.8073 C   0  0  0  0  0  0  0  0  0  0  0  0
  102.4757   21.2311   20.3541 N   0  3  0  0  0  0  0  0  0  0  0  0
  102.6841   20.2168   19.2362 C   0  0  0  0  0  0  0  0  0  0  0  0
  101.5674   22.3788   19.9076 C   0  0  0  0  0  0  0  0  0  0  0  0
  101.8104   20.4635   21.4867 C   0  0  0  0  0  0  0  0  0  0  0  0
  107.3807   28.2606   16.4370 C   0  0  0  0  0  0  0  0  0  0  0  0
  107.3799   29.3163   15.4087 N   0  0  0  0  0  0  0  0  0  0  0  0
  108.4755   29.8151   15.1034 O   0  0  0  0  0  0  0  0  0  0  0  0
  106.2960   29.6491   14.9206 O   0  0  0  0  0  0  0  0  0  0  0  0
  108.5724   27.8249   17.0323 C   0  0  0  0  0  0  0  0  0  0  0  0
  108.5430   26.8110   18.0112 C   0  0  0  0  0  0  0  0  0  0  0  0
  107.3246   26.2092   18.3712 C   0  0  0  0  0  0  0  0  0  0  0  0
  106.1407   26.6714   17.7862 C   0  0  0  0  0  0  0  0  0  0  0  0
  106.1673   27.6805   16.8183 C   0  0  0  0  0  0  0  0  0  0  0  0
  104.9703   21.9085   18.9881 H   0  0  0  0  0  0  0  0  0  0  0  0
  103.7788   23.1827   19.0992 H   0  0  0  0  0  0  0  0  0  0  0  0
  103.6871   22.4209   21.7028 H   0  0  0  0  0  0  0  0  0  0  0  0
  104.4938   20.9620   21.0851 H   0  0  0  0  0  0  0  0  0  0  0  0
  101.7006   19.8433   18.9343 H   0  0  0  0  0  0  0  0  0  0  0  0
  103.2871   19.3949   19.6342 H   0  0  0  0  0  0  0  0  0  0  0  0
  103.1845   20.6927   18.3896 H   0  0  0  0  0  0  0  0  0  0  0  0
  101.5295   23.1186   20.7150 H   0  0  0  0  0  0  0  0  0  0  0  0
  100.5737   21.9824   19.6868 H   0  0  0  0  0  0  0  0  0  0  0  0
  101.9468   22.8298   18.9910 H   0  0  0  0  0  0  0  0  0  0  0  0
  101.6282   21.1341   22.3302 H   0  0  0  0  0  0  0  0  0  0  0  0
  102.4601   19.6335   21.7761 H   0  0  0  0  0  0  0  0  0  0  0  0
  100.8615   20.0651   21.1055 H   0  0  0  0  0  0  0  0  0  0  0  0
  109.5264   28.2673   16.7560 H   0  0  0  0  0  0  0  0  0  0  0  0
  109.4644   26.4705   18.4669 H   0  0  0  0  0  0  0  0  0  0  0  0
  105.1999   26.2130   18.0600 H   0  0  0  0  0  0  0  0  0  0  0  0
  105.2237   27.9738   16.3477 H   0  0  0  0  0  0  0  0  0  0  0  0
  2  1  2  6  0  0  0
  2  5  1  0  0  0  0
  2  4  1  0  0  0  0
  2  3  1  0  0  0  0
  4 18  1  0  0  0  0
  5  6  1  0  0  0  0
  6  7  1  0  0  0  0
  6 21  1  0  0  0  0
  6 22  1  0  0  0  0
  7  8  1  0  0  0  0
  7 23  1  0  0  0  0
  7 24  1  0  0  0  0
  8 11  1  0  0  0  0
  8 10  1  0  0  0  0
  8  9  1  0  0  0  0
  9 25  1  0  0  0  0
  9 26  1  0  0  0  0
  9 27  1  0  0  0  0
 10 28  1  0  0  0  0
 10 29  1  0  0  0  0
 10 30  1  0  0  0  0
 11 31  1  0  0  0  0
 11 32  1  0  0  0  0
 11 33  1  0  0  0  0
 12 16  1  0  0  0  0
 12 20  2  0  0  0  0
 12 13  1  0  0  0  0
 13 15  2  0  0  0  0
 13 14  2  0  0  0  0
 16 17  2  0  0  0  0
 16 34  1  0  0  0  0
 17 18  1  0  0  0  0
 17 35  1  0  0  0  0
 18 19  2  0  0  0  0
 19 20  1  0  0  0  0
 19 36  1  0  0  0  0
 20 37  1  0  0  0  0
M  CHG  1   8   1
M  END
$$$$
