NFL
 OpenBabel04041916573D

 28 29  0  0  0  0  0  0  0  0999 V2000
    9.6195   10.8667    6.7606 F   0  0  0  0  0  0  0  0  0  0  0  0
   10.9536   11.0822    6.8740 C   0  0  0  0  0  0  0  0  0  0  0  0
   11.5586    9.8731    6.7411 F   0  0  0  0  0  0  0  0  0  0  0  0
   11.2028   11.4439    8.1747 F   0  0  0  0  0  0  0  0  0  0  0  0
   11.5147   12.0094    5.8523 C   0  0  0  0  0  0  0  0  0  0  0  0
   10.7972   12.5243    4.7486 C   0  0  0  0  0  0  0  0  0  0  0  0
   11.4526   13.2975    3.7642 C   0  0  0  0  0  0  0  0  0  0  0  0
   12.8299   13.5144    3.9360 C   0  0  0  0  0  0  0  0  0  0  0  0
   13.5341   12.9897    5.0136 C   0  0  0  0  0  0  0  0  0  0  0  0
   12.8858   12.2543    5.9707 C   0  0  0  0  0  0  0  0  0  0  0  0
   10.8952   13.9019    2.6160 N   0  0  0  0  0  0  0  0  0  0  0  0
    9.5995   13.9460    2.0777 C   0  0  0  0  0  0  0  0  0  0  0  0
    8.6234   13.2806    2.7685 N   0  0  0  0  0  0  0  0  0  0  0  0
    9.2763   14.6416    0.8489 C   0  0  0  0  0  0  0  0  0  0  0  0
   10.2353   15.4349   -0.0555 C   0  0  0  0  0  0  0  0  0  0  0  0
   11.4714   15.4925    0.3068 O   0  0  0  0  0  0  0  0  0  0  0  0
    9.7749   15.9860   -1.1030 O   0  0  0  0  0  0  0  0  0  0  0  0
    7.9300   14.5983    0.4112 C   0  0  0  0  0  0  0  0  0  0  0  0
    6.9713   13.9111    1.1419 C   0  0  0  0  0  0  0  0  0  0  0  0
    7.3582   13.2762    2.3012 C   0  0  0  0  0  0  0  0  0  0  0  0
    9.7398   12.2984    4.6445 H   0  0  0  0  0  0  0  0  0  0  0  0
   13.3568   14.1113    3.2003 H   0  0  0  0  0  0  0  0  0  0  0  0
   14.5974   13.1796    5.0997 H   0  0  0  0  0  0  0  0  0  0  0  0
   13.4393   11.8142    6.8010 H   0  0  0  0  0  0  0  0  0  0  0  0
   11.5633   14.4312    2.0470 H   0  0  0  0  0  0  0  0  0  0  0  0
    7.6638   15.1106   -0.5047 H   0  0  0  0  0  0  0  0  0  0  0  0
    5.9333   13.8764    0.8027 H   0  0  0  0  0  0  0  0  0  0  0  0
    6.6192   12.7344    2.8877 H   0  0  0  0  0  0  0  0  0  0  0  0
  1  2  1  0  0  0  0
  2  3  1  0  0  0  0
  2  4  1  0  0  0  0
  2  5  1  0  0  0  0
  5  6  2  0  0  0  0
  5 10  1  0  0  0  0
  6  7  1  0  0  0  0
  6 21  1  0  0  0  0
  7  8  2  0  0  0  0
  7 11  1  0  0  0  0
  8  9  1  0  0  0  0
  8 22  1  0  0  0  0
  9 10  2  0  0  0  0
  9 23  1  0  0  0  0
 10 24  1  0  0  0  0
 11 12  1  0  0  0  0
 11 25  1  0  0  0  0
 12 13  2  0  0  0  0
 12 14  1  0  0  0  0
 13 20  1  0  0  0  0
 14 15  1  0  0  0  0
 14 18  2  0  0  0  0
 15 16  2  0  0  0  0
 15 17  1  0  0  0  0
 18 19  1  0  0  0  0
 18 26  1  0  0  0  0
 19 20  2  0  0  0  0
 19 27  1  0  0  0  0
 20 28  1  0  0  0  0
M  END
$$$$
