NGH
 OpenBabel04041916433D

 41 41  0  0  0  0  0  0  0  0999 V2000
    5.7341   25.6556    5.0657 C   0  0  0  0  0  0  0  0  0  0  0  0
    4.9323   24.5420    5.3970 C   0  0  0  0  0  0  0  0  0  0  0  0
    5.4175   23.2459    5.2042 C   0  0  0  0  0  0  0  0  0  0  0  0
    6.6956   23.0611    4.6647 C   0  0  0  0  0  0  0  0  0  0  0  0
    7.4951   24.1629    4.3451 C   0  0  0  0  0  0  0  0  0  0  0  0
    7.0050   25.4567    4.5165 C   0  0  0  0  0  0  0  0  0  0  0  0
    4.7891   22.0810    5.5392 O   0  0  0  0  0  0  0  0  0  0  0  0
    3.4889   22.1658    6.1028 C   0  0  0  0  0  0  0  0  0  0  0  0
    8.1201   26.8187    4.2673 S   0  0  0  0  0  0  0  0  0  0  0  0
    9.4617   26.2982    4.4237 O   0  0  0  0  0  0  0  0  0  0  0  0
    7.6579   27.9109    5.0975 O   0  0  0  0  0  0  0  0  0  0  0  0
    7.9554   27.2769    2.6512 N   0  0  0  0  0  0  0  0  0  0  0  0
    6.7767   28.0632    2.2178 C   0  0  0  0  0  0  0  0  0  0  0  0
    8.6782   26.5066    1.6133 C   0  0  0  0  0  0  0  0  0  0  0  0
    7.9035   25.3713    0.9690 C   0  0  0  0  0  0  0  0  0  0  0  0
    8.5597   24.1541    0.9846 N   0  0  0  0  0  0  0  0  0  0  0  0
    7.8040   23.0889    0.4409 O   0  0  0  0  0  0  0  0  0  0  0  0
    6.7800   25.5340    0.4929 O   0  0  0  0  0  0  0  0  0  0  0  0
    7.2511   29.3213    1.4647 C   0  0  0  0  0  0  0  0  0  0  0  0
    7.6283   30.4324    2.4436 C   0  0  0  0  0  0  0  0  0  0  0  0
    6.1929   29.8179    0.4792 C   0  0  0  0  0  0  0  0  0  0  0  0
    5.3679   26.6561    5.2835 H   0  0  0  0  0  0  0  0  0  0  0  0
    3.9604   24.7270    5.8342 H   0  0  0  0  0  0  0  0  0  0  0  0
    7.0829   22.0603    4.5258 H   0  0  0  0  0  0  0  0  0  0  0  0
    8.5152   23.9911    4.0102 H   0  0  0  0  0  0  0  0  0  0  0  0
    3.2293   21.1751    6.4926 H   0  0  0  0  0  0  0  0  0  0  0  0
    2.7628   22.4247    5.3272 H   0  0  0  0  0  0  0  0  0  0  0  0
    3.4412   22.8633    6.9441 H   0  0  0  0  0  0  0  0  0  0  0  0
    6.1617   28.3587    3.0786 H   0  0  0  0  0  0  0  0  0  0  0  0
    6.1153   27.4580    1.5938 H   0  0  0  0  0  0  0  0  0  0  0  0
    9.6195   26.1234    2.0236 H   0  0  0  0  0  0  0  0  0  0  0  0
    9.0000   27.1800    0.8094 H   0  0  0  0  0  0  0  0  0  0  0  0
    9.5700   24.1148    0.8769 H   0  0  0  0  0  0  0  0  0  0  0  0
    8.4586   22.4134    0.2001 H   0  0  0  0  0  0  0  0  0  0  0  0
    8.1427   29.0967    0.8711 H   0  0  0  0  0  0  0  0  0  0  0  0
    7.9679   31.3232    1.9043 H   0  0  0  0  0  0  0  0  0  0  0  0
    8.4396   30.1123    3.1047 H   0  0  0  0  0  0  0  0  0  0  0  0
    6.7731   30.7194    3.0653 H   0  0  0  0  0  0  0  0  0  0  0  0
    5.9281   29.0311   -0.2324 H   0  0  0  0  0  0  0  0  0  0  0  0
    6.5796   30.6649   -0.0943 H   0  0  0  0  0  0  0  0  0  0  0  0
    5.2823   30.1405    0.9950 H   0  0  0  0  0  0  0  0  0  0  0  0
  1  2  2  0  0  0  0
  1  6  1  0  0  0  0
  1 22  1  0  0  0  0
  2  3  1  0  0  0  0
  2 23  1  0  0  0  0
  3  4  2  0  0  0  0
  3  7  1  0  0  0  0
  4  5  1  0  0  0  0
  4 24  1  0  0  0  0
  5  6  2  0  0  0  0
  5 25  1  0  0  0  0
  6  9  1  0  0  0  0
  7  8  1  0  0  0  0
  8 26  1  0  0  0  0
  8 27  1  0  0  0  0
  8 28  1  0  0  0  0
  9 10  2  0  0  0  0
  9 11  2  0  0  0  0
  9 12  1  0  0  0  0
 12 13  1  0  0  0  0
 12 14  1  0  0  0  0
 13 19  1  0  0  0  0
 13 29  1  0  0  0  0
 13 30  1  0  0  0  0
 14 15  1  0  0  0  0
 14 31  1  0  0  0  0
 14 32  1  0  0  0  0
 15 16  1  0  0  0  0
 15 18  2  0  0  0  0
 16 17  1  0  0  0  0
 16 33  1  0  0  0  0
 17 34  1  0  0  0  0
 19 20  1  0  0  0  0
 19 21  1  0  0  0  0
 19 35  1  0  0  0  0
 20 36  1  0  0  0  0
 20 37  1  0  0  0  0
 20 38  1  0  0  0  0
 21 39  1  0  0  0  0
 21 40  1  0  0  0  0
 21 41  1  0  0  0  0
M  END
$$$$
