NH1
 OpenBabel04041916153D

 71 74  0  0  1  0  0  0  0  0999 V2000
   41.7174   11.1863   61.0043 O   0  0  0  0  0  0  0  0  0  0  0  0
   41.6772   11.9772   59.8915 C   0  0  0  0  0  0  0  0  0  0  0  0
   42.8827   12.3195   59.2917 C   0  0  0  0  0  0  0  0  0  0  0  0
   42.8854   13.1282   58.1563 C   0  0  0  0  0  0  0  0  0  0  0  0
   41.6777   13.6037   57.6287 C   0  0  0  0  0  0  0  0  0  0  0  0
   40.4694   13.2355   58.2377 C   0  0  0  0  0  0  0  0  0  0  0  0
   40.4663   12.4239   59.3712 C   0  0  0  0  0  0  0  0  0  0  0  0
   41.6817   14.4934   56.4122 C   0  0  0  0  0  0  0  0  0  0  0  0
   41.3837   13.7134   55.1386 C   0  0  0  0  0  0  0  0  0  0  0  0
   41.1083   14.6050   53.8958 C   0  0  2  0  0  0  0  0  0  0  0  0
   40.8212   13.7012   52.7994 O   0  0  0  0  0  0  0  0  0  0  0  0
   41.8413   12.9649   52.2630 C   0  0  0  0  0  0  0  0  0  0  0  0
   41.5794   11.9829   51.5864 O   0  0  0  0  0  0  0  0  0  0  0  0
   43.2483   13.4595   52.5192 C   0  0  0  0  0  0  0  0  0  0  0  0
   44.5037   12.3687   51.9998 S   0  0  0  0  0  0  0  0  0  0  0  0
   45.1427   13.2019   50.5279 C   0  0  0  0  0  0  0  0  0  0  0  0
   44.1755   13.7346   49.6661 C   0  0  0  0  0  0  0  0  0  0  0  0
   44.5021   14.3450   48.4479 C   0  0  0  0  0  0  0  0  0  0  0  0
   45.8324   14.4167   48.0550 C   0  0  0  0  0  0  0  0  0  0  0  0
   46.1991   14.8539   46.7869 N   0  0  0  0  0  0  0  0  0  0  0  0
   46.8015   13.8720   48.8971 C   0  0  0  0  0  0  0  0  0  0  0  0
   46.5076   13.2798   50.1530 C   0  0  0  0  0  0  0  0  0  0  0  0
   47.6821   12.7980   51.0278 C   0  0  0  0  0  0  0  0  0  0  0  0
   47.7209   13.5946   52.3447 C   0  0  0  0  0  0  0  0  0  0  0  0
   49.0657   13.0118   50.3601 C   0  0  0  0  0  0  0  0  0  0  0  0
   47.5837   11.2878   51.3066 C   0  0  0  0  0  0  0  0  0  0  0  0
   43.4118   14.9456   47.6293 C   0  0  0  0  0  0  0  0  0  0  0  0
   43.5103   14.6504   53.1162 C   0  0  0  0  0  0  0  0  0  0  0  0
   44.5660   15.2498   53.4260 O   0  0  0  0  0  0  0  0  0  0  0  0
   42.2968   15.4941   53.5020 C   0  0  0  0  0  0  0  0  0  0  0  0
   39.8543   15.5219   54.1164 C   0  0  0  0  0  0  0  0  0  0  0  0
   38.6014   14.8007   54.6274 C   0  0  0  0  0  0  0  0  0  0  0  0
   37.4041   15.6107   54.1486 C   0  0  0  0  0  0  0  0  0  0  0  0
   37.9048   16.5555   53.0676 C   0  0  0  0  0  0  0  0  0  0  0  0
   39.3763   16.2420   52.8504 C   0  0  0  0  0  0  0  0  0  0  0  0
   40.8047   11.0288   61.2943 H   0  0  0  0  0  0  0  0  0  0  0  0
   43.8219   11.9572   59.6972 H   0  0  0  0  0  0  0  0  0  0  0  0
   43.8279   13.3899   57.6793 H   0  0  0  0  0  0  0  0  0  0  0  0
   39.5242   13.5833   57.8258 H   0  0  0  0  0  0  0  0  0  0  0  0
   39.5203   12.1548   59.8268 H   0  0  0  0  0  0  0  0  0  0  0  0
   42.6509   14.9972   56.3274 H   0  0  0  0  0  0  0  0  0  0  0  0
   40.9409   15.2821   56.5795 H   0  0  0  0  0  0  0  0  0  0  0  0
   40.5331   13.0327   55.2811 H   0  0  0  0  0  0  0  0  0  0  0  0
   42.2187   13.0273   54.9506 H   0  0  0  0  0  0  0  0  0  0  0  0
   43.1247   13.6875   49.9386 H   0  0  0  0  0  0  0  0  0  0  0  0
   47.1746   15.0511   46.6093 H   0  0  0  0  0  0  0  0  0  0  0  0
   45.5131   15.3583   46.2431 H   0  0  0  0  0  0  0  0  0  0  0  0
   47.8217   13.9459   48.5405 H   0  0  0  0  0  0  0  0  0  0  0  0
   48.5496   13.2663   52.9803 H   0  0  0  0  0  0  0  0  0  0  0  0
   46.8150   13.4739   52.9371 H   0  0  0  0  0  0  0  0  0  0  0  0
   47.8420   14.6679   52.1534 H   0  0  0  0  0  0  0  0  0  0  0  0
   49.1406   12.4711   49.4052 H   0  0  0  0  0  0  0  0  0  0  0  0
   49.8867   12.6543   50.9893 H   0  0  0  0  0  0  0  0  0  0  0  0
   49.2605   14.0760   50.1607 H   0  0  0  0  0  0  0  0  0  0  0  0
   46.6714   10.9993   51.8232 H   0  0  0  0  0  0  0  0  0  0  0  0
   48.4044   10.9537   51.9490 H   0  0  0  0  0  0  0  0  0  0  0  0
   47.6132   10.7138   50.3739 H   0  0  0  0  0  0  0  0  0  0  0  0
   42.4296   14.7867   48.0855 H   0  0  0  0  0  0  0  0  0  0  0  0
   43.3999   14.4935   46.6345 H   0  0  0  0  0  0  0  0  0  0  0  0
   43.5757   16.0249   47.5503 H   0  0  0  0  0  0  0  0  0  0  0  0
   42.5225   16.1815   54.3182 H   0  0  0  0  0  0  0  0  0  0  0  0
   42.0522   16.1113   52.6253 H   0  0  0  0  0  0  0  0  0  0  0  0
   40.1091   16.2986   54.8511 H   0  0  0  0  0  0  0  0  0  0  0  0
   38.6022   14.7473   55.7237 H   0  0  0  0  0  0  0  0  0  0  0  0
   38.5318   13.7752   54.2529 H   0  0  0  0  0  0  0  0  0  0  0  0
   36.9585   16.1801   54.9722 H   0  0  0  0  0  0  0  0  0  0  0  0
   36.6232   14.9466   53.7623 H   0  0  0  0  0  0  0  0  0  0  0  0
   37.7734   17.5963   53.3842 H   0  0  0  0  0  0  0  0  0  0  0  0
   37.3410   16.4295   52.1370 H   0  0  0  0  0  0  0  0  0  0  0  0
   39.4945   15.6237   51.9558 H   0  0  0  0  0  0  0  0  0  0  0  0
   39.9430   17.1659   52.6881 H   0  0  0  0  0  0  0  0  0  0  0  0
  1  2  1  0  0  0  0
  1 36  1  0  0  0  0
  2  3  2  0  0  0  0
  2  7  1  0  0  0  0
  3  4  1  0  0  0  0
  3 37  1  0  0  0  0
  4  5  2  0  0  0  0
  4 38  1  0  0  0  0
  5  6  1  0  0  0  0
  5  8  1  0  0  0  0
  6  7  2  0  0  0  0
  6 39  1  0  0  0  0
  7 40  1  0  0  0  0
  8  9  1  0  0  0  0
  8 41  1  0  0  0  0
  8 42  1  0  0  0  0
  9 43  1  0  0  0  0
  9 44  1  0  0  0  0
 10  9  1  1  0  0  0
 10 11  1  0  0  0  0
 10 30  1  0  0  0  0
 10 31  1  0  0  0  0
 11 12  1  0  0  0  0
 12 13  2  0  0  0  0
 12 14  1  0  0  0  0
 14 15  1  0  0  0  0
 14 28  2  0  0  0  0
 15 16  1  0  0  0  0
 16 17  2  0  0  0  0
 16 22  1  0  0  0  0
 17 18  1  0  0  0  0
 17 45  1  0  0  0  0
 18 19  2  0  0  0  0
 18 27  1  0  0  0  0
 19 20  1  0  0  0  0
 19 21  1  0  0  0  0
 20 46  1  0  0  0  0
 20 47  1  0  0  0  0
 21 22  2  0  0  0  0
 21 48  1  0  0  0  0
 22 23  1  0  0  0  0
 23 24  1  0  0  0  0
 23 25  1  0  0  0  0
 23 26  1  0  0  0  0
 24 49  1  0  0  0  0
 24 50  1  0  0  0  0
 24 51  1  0  0  0  0
 25 52  1  0  0  0  0
 25 53  1  0  0  0  0
 25 54  1  0  0  0  0
 26 55  1  0  0  0  0
 26 56  1  0  0  0  0
 26 57  1  0  0  0  0
 27 58  1  0  0  0  0
 27 59  1  0  0  0  0
 27 60  1  0  0  0  0
 28 29  1  0  0  0  0
 28 30  1  0  0  0  0
 30 61  1  0  0  0  0
 30 62  1  0  0  0  0
 31 32  1  0  0  0  0
 31 35  1  0  0  0  0
 31 63  1  0  0  0  0
 32 33  1  0  0  0  0
 32 64  1  0  0  0  0
 32 65  1  0  0  0  0
 33 34  1  0  0  0  0
 33 66  1  0  0  0  0
 33 67  1  0  0  0  0
 34 35  1  0  0  0  0
 34 68  1  0  0  0  0
 34 69  1  0  0  0  0
 35 70  1  0  0  0  0
 35 71  1  0  0  0  0
M  END
$$$$
