NM1
 OpenBabel04041914433D

 82 86  0  0  1  0  0  0  0  0999 V2000
   11.3634   23.7416    5.9903 N   0  0  0  0  0  0  0  0  0  0  0  0
   11.8014   22.1711    6.4716 S   0  0  0  0  0  0  0  0  0  0  0  0
   13.4523   22.2411    6.2307 N   0  0  0  0  0  0  0  0  0  0  0  0
   13.8658   22.2075    4.7959 C   0  0  1  0  0  0  0  0  0  0  0  0
   14.0149   23.5921    4.1412 C   0  0  1  0  0  0  0  0  0  0  0  0
   13.0460   24.6671    4.5996 C   0  0  2  0  0  0  0  0  0  0  0  0
   11.5742   24.2977    4.6222 C   0  0  1  0  0  0  0  0  0  0  0  0
   10.0812   24.1528    6.5413 C   0  0  0  0  0  0  0  0  0  0  0  0
    9.9310   25.4915    7.2150 C   0  0  0  0  0  0  0  0  0  0  0  0
    8.8351   26.3071    6.8370 C   0  0  0  0  0  0  0  0  0  0  0  0
    8.6004   27.5127    7.4990 C   0  0  0  0  0  0  0  0  0  0  0  0
    9.4464   27.9005    8.5571 C   0  0  0  0  0  0  0  0  0  0  0  0
   10.5110   27.0710    8.9682 C   0  0  0  0  0  0  0  0  0  0  0  0
   10.7413   25.8648    8.2983 C   0  0  0  0  0  0  0  0  0  0  0  0
   11.2350   21.1917    5.5880 O   0  0  0  0  0  0  0  0  0  0  0  0
   14.8683   20.3418    3.5308 O   0  0  0  0  0  0  0  0  0  0  0  0
   15.8944   19.4634    3.2355 C   0  0  0  0  0  0  0  0  0  0  0  0
   16.8371   19.0221    4.1729 C   0  0  0  0  0  0  0  0  0  0  0  0
   17.8516   18.1102    3.8084 C   0  0  0  0  0  0  0  0  0  0  0  0
   17.9196   17.6273    2.4951 C   0  0  0  0  0  0  0  0  0  0  0  0
   16.9776   18.0453    1.5474 C   0  0  0  0  0  0  0  0  0  0  0  0
   15.9602   18.9544    1.9165 C   0  0  0  0  0  0  0  0  0  0  0  0
   14.2715   22.8998    7.2830 C   0  0  0  0  0  0  0  0  0  0  0  0
   15.2185   22.0070    8.0960 C   0  0  0  0  0  0  0  0  0  0  0  0
   14.7234   21.1192    9.0718 C   0  0  0  0  0  0  0  0  0  0  0  0
   15.6034   20.3142    9.8207 C   0  0  0  0  0  0  0  0  0  0  0  0
   16.9863   20.3965    9.6093 C   0  0  0  0  0  0  0  0  0  0  0  0
   17.4961   21.2901    8.6601 C   0  0  0  0  0  0  0  0  0  0  0  0
   16.6192   22.0973    7.9138 C   0  0  0  0  0  0  0  0  0  0  0  0
   15.3376   24.0964    4.4038 O   0  0  0  0  0  0  0  0  0  0  0  0
   13.2516   25.8428    3.7981 O   0  0  0  0  0  0  0  0  0  0  0  0
   10.9112   23.4971    3.4788 C   0  0  0  0  0  0  0  0  0  0  0  0
    9.4497   23.4777    3.6146 O   0  0  0  0  0  0  0  0  0  0  0  0
    8.6734   24.4176    2.9720 C   0  0  0  0  0  0  0  0  0  0  0  0
    9.1073   25.6959    2.6010 C   0  0  0  0  0  0  0  0  0  0  0  0
    8.2370   26.5910    1.9429 C   0  0  0  0  0  0  0  0  0  0  0  0
    6.9182   26.2118    1.6673 C   0  0  0  0  0  0  0  0  0  0  0  0
    6.4616   24.9447    2.0487 C   0  0  0  0  0  0  0  0  0  0  0  0
    7.3323   24.0538    2.7098 C   0  0  0  0  0  0  0  0  0  0  0  0
   11.5871   22.1014    7.8859 O   0  0  0  0  0  0  0  0  0  0  0  0
   15.1002   21.3080    4.5922 C   0  0  0  0  0  0  0  0  0  0  0  0
    7.5095   28.4517    7.0648 C   0  0  0  0  0  0  0  0  0  0  0  0
    7.6705   29.6269    7.0976 O   0  0  0  0  0  0  0  0  0  0  0  0
    6.2988   27.8726    6.6282 N   0  0  0  0  0  0  0  0  0  0  0  0
    5.2322   28.7794    6.2440 C   0  0  0  0  0  0  0  0  0  0  0  0
   13.0509   21.7259    4.2485 H   0  0  0  0  0  0  0  0  0  0  0  0
   13.9122   23.4784    3.0539 H   0  0  0  0  0  0  0  0  0  0  0  0
   13.3198   24.9572    5.6301 H   0  0  0  0  0  0  0  0  0  0  0  0
   11.0321   25.2540    4.5933 H   0  0  0  0  0  0  0  0  0  0  0  0
    9.8124   23.4112    7.2761 H   0  0  0  0  0  0  0  0  0  0  0  0
    9.3846   24.1488    5.7183 H   0  0  0  0  0  0  0  0  0  0  0  0
    8.1942   26.0050    6.0042 H   0  0  0  0  0  0  0  0  0  0  0  0
    9.2811   28.8421    9.0840 H   0  0  0  0  0  0  0  0  0  0  0  0
   11.1594   27.3639    9.7952 H   0  0  0  0  0  0  0  0  0  0  0  0
   11.5572   25.2103    8.6046 H   0  0  0  0  0  0  0  0  0  0  0  0
   16.7969   19.3731    5.1983 H   0  0  0  0  0  0  0  0  0  0  0  0
   18.5852   17.7842    4.5521 H   0  0  0  0  0  0  0  0  0  0  0  0
   18.7109   16.9180    2.2137 H   0  0  0  0  0  0  0  0  0  0  0  0
   17.0364   17.6621    0.5218 H   0  0  0  0  0  0  0  0  0  0  0  0
   15.2405   19.2694    1.1602 H   0  0  0  0  0  0  0  0  0  0  0  0
   13.6045   23.3838    8.0161 H   0  0  0  0  0  0  0  0  0  0  0  0
   14.8728   23.6994    6.8454 H   0  0  0  0  0  0  0  0  0  0  0  0
   13.6446   21.0528    9.2485 H   0  0  0  0  0  0  0  0  0  0  0  0
   15.1999   19.6173   10.5643 H   0  0  0  0  0  0  0  0  0  0  0  0
   17.6653   19.7635   10.1879 H   0  0  0  0  0  0  0  0  0  0  0  0
   18.5787   21.3596    8.4942 H   0  0  0  0  0  0  0  0  0  0  0  0
   17.0276   22.7938    7.1773 H   0  0  0  0  0  0  0  0  0  0  0  0
   15.4399   24.9539    3.9662 H   0  0  0  0  0  0  0  0  0  0  0  0
   14.1617   26.1484    3.9363 H   0  0  0  0  0  0  0  0  0  0  0  0
   11.2412   22.4520    3.4990 H   0  0  0  0  0  0  0  0  0  0  0  0
   11.1786   23.8916    2.4911 H   0  0  0  0  0  0  0  0  0  0  0  0
   10.1194   26.0201    2.8087 H   0  0  0  0  0  0  0  0  0  0  0  0
    8.5944   27.5795    1.6432 H   0  0  0  0  0  0  0  0  0  0  0  0
    6.2433   26.9088    1.1527 H   0  0  0  0  0  0  0  0  0  0  0  0
    5.4293   24.6534    1.8276 H   0  0  0  0  0  0  0  0  0  0  0  0
    6.9619   23.0668    2.9913 H   0  0  0  0  0  0  0  0  0  0  0  0
   15.3046   20.7985    5.5372 H   0  0  0  0  0  0  0  0  0  0  0  0
   15.9567   21.9276    4.3188 H   0  0  0  0  0  0  0  0  0  0  0  0
    6.1552   26.8822    6.6035 H   0  0  0  0  0  0  0  0  0  0  0  0
    4.3533   28.2059    5.9416 H   0  0  0  0  0  0  0  0  0  0  0  0
    5.5759   29.4011    5.4137 H   0  0  0  0  0  0  0  0  0  0  0  0
    4.9810   29.4232    7.0929 H   0  0  0  0  0  0  0  0  0  0  0  0
  1  8  1  0  0  0  0
  1  7  1  0  0  0  0
  1  2  1  0  0  0  0
  2 40  2  0  0  0  0
  2 15  2  0  0  0  0
  2  3  1  0  0  0  0
  3 23  1  0  0  0  0
  3  4  1  0  0  0  0
  4 41  1  0  0  0  0
  4  5  1  0  0  0  0
  4 46  1  6  0  0  0
  5 30  1  0  0  0  0
  5  6  1  0  0  0  0
  5 47  1  6  0  0  0
  6 31  1  0  0  0  0
  6  7  1  0  0  0  0
  6 48  1  1  0  0  0
  7 32  1  0  0  0  0
  7 49  1  1  0  0  0
  8  9  1  0  0  0  0
  8 50  1  0  0  0  0
  8 51  1  0  0  0  0
  9 14  2  0  0  0  0
  9 10  1  0  0  0  0
 10 11  2  0  0  0  0
 10 52  1  0  0  0  0
 11 42  1  0  0  0  0
 11 12  1  0  0  0  0
 12 13  2  0  0  0  0
 12 53  1  0  0  0  0
 13 14  1  0  0  0  0
 13 54  1  0  0  0  0
 14 55  1  0  0  0  0
 16 41  1  0  0  0  0
 16 17  1  0  0  0  0
 17 22  2  0  0  0  0
 17 18  1  0  0  0  0
 18 19  2  0  0  0  0
 18 56  1  0  0  0  0
 19 20  1  0  0  0  0
 19 57  1  0  0  0  0
 20 21  2  0  0  0  0
 20 58  1  0  0  0  0
 21 22  1  0  0  0  0
 21 59  1  0  0  0  0
 22 60  1  0  0  0  0
 23 24  1  0  0  0  0
 23 61  1  0  0  0  0
 23 62  1  0  0  0  0
 24 29  2  0  0  0  0
 24 25  1  0  0  0  0
 25 26  2  0  0  0  0
 25 63  1  0  0  0  0
 26 27  1  0  0  0  0
 26 64  1  0  0  0  0
 27 28  2  0  0  0  0
 27 65  1  0  0  0  0
 28 29  1  0  0  0  0
 28 66  1  0  0  0  0
 29 67  1  0  0  0  0
 30 68  1  0  0  0  0
 31 69  1  0  0  0  0
 32 33  1  0  0  0  0
 32 70  1  0  0  0  0
 32 71  1  0  0  0  0
 33 34  1  0  0  0  0
 34 39  2  0  0  0  0
 34 35  1  0  0  0  0
 35 36  2  0  0  0  0
 35 72  1  0  0  0  0
 36 37  1  0  0  0  0
 36 73  1  0  0  0  0
 37 38  2  0  0  0  0
 37 74  1  0  0  0  0
 38 39  1  0  0  0  0
 38 75  1  0  0  0  0
 39 76  1  0  0  0  0
 41 77  1  0  0  0  0
 41 78  1  0  0  0  0
 42 44  1  0  0  0  0
 42 43  2  0  0  0  0
 44 45  1  0  0  0  0
 44 79  1  0  0  0  0
 45 80  1  0  0  0  0
 45 81  1  0  0  0  0
 45 82  1  0  0  0  0
M  END
$$$$
