NON
 OpenBabel04041915013D

 18 17  0  0  0  0  0  0  0  0999 V2000
   47.6195   44.8607   61.9770 O   0  0  0  0  0  0  0  0  0  0  0  0
   47.6182   43.6115   62.1629 C   0  0  0  0  0  0  0  0  0  0  0  0
   47.2963   42.9792   63.2212 O   0  0  0  0  0  0  0  0  0  0  0  0
   48.3382   42.7551   61.1422 C   0  0  0  0  0  0  0  0  0  0  0  0
   47.9759   42.9942   59.7038 C   0  0  0  0  0  0  0  0  0  0  0  0
   48.4748   43.9272   59.0497 O   0  0  0  0  0  0  0  0  0  0  0  0
   47.2051   41.9184   58.9918 C   0  0  0  0  0  0  0  0  0  0  0  0
   45.4253   42.1756   58.9617 P   0  0  2  0  0  0  0  0  0  0  0  0
   45.0365   42.9525   57.7227 O   0  0  0  0  0  0  0  0  0  0  0  0
   44.9170   42.5148   60.3377 O   0  0  0  0  0  0  0  0  0  0  0  0
   44.8432   40.4784   58.6729 C   0  0  0  0  0  0  0  0  0  0  0  0
   48.2052   41.6931   61.3781 H   0  0  0  0  0  0  0  0  0  0  0  0
   49.4132   42.9483   61.2420 H   0  0  0  0  0  0  0  0  0  0  0  0
   47.4539   40.9479   59.4388 H   0  0  0  0  0  0  0  0  0  0  0  0
   47.5780   41.8523   57.9599 H   0  0  0  0  0  0  0  0  0  0  0  0
   43.7507   40.4929   58.6787 H   0  0  0  0  0  0  0  0  0  0  0  0
   45.1911   39.8175   59.4703 H   0  0  0  0  0  0  0  0  0  0  0  0
   45.1977   40.1067   57.7101 H   0  0  0  0  0  0  0  0  0  0  0  0
  1  2  2  0  0  0  0
  2  4  1  0  0  0  0
  2  3  1  0  0  0  0
  4  5  1  0  0  0  0
  4 12  1  0  0  0  0
  4 13  1  0  0  0  0
  5  7  1  0  0  0  0
  5  6  2  0  0  0  0
  7 14  1  0  0  0  0
  7 15  1  0  0  0  0
  8  7  1  1  0  0  0
  8 11  1  0  0  0  0
  8 10  2  0  0  0  0
  8  9  1  0  0  0  0
 11 16  1  0  0  0  0
 11 17  1  0  0  0  0
 11 18  1  0  0  0  0
M  END
$$$$
