NON
 OpenBabel04041914523D

 45 46  0  0  1  0  0  0  0  0999 V2000
    8.3894    9.7591   55.8273 C   0  0  2  0  0  0  0  0  0  0  0  0
    8.2669    9.6619   54.2864 C   0  0  1  0  0  0  0  0  0  0  0  0
    6.7885    9.5433   53.9063 C   0  0  2  0  0  0  0  0  0  0  0  0
    6.1831    8.3273   54.5987 C   0  0  2  0  0  0  0  0  0  0  0  0
    6.3887    8.5240   56.1134 C   0  0  1  0  0  0  0  0  0  0  0  0
    5.8535    7.3345   56.8649 C   0  0  0  0  0  0  0  0  0  0  0  0
    9.7743    9.7776   56.1884 O   0  0  0  0  0  0  0  0  0  0  0  0
    8.8155   10.8350   53.6657 O   0  0  0  0  0  0  0  0  0  0  0  0
    6.6266    9.4501   52.4898 O   0  0  0  0  0  0  0  0  0  0  0  0
    6.8349    7.1240   54.1527 O   0  0  0  0  0  0  0  0  0  0  0  0
    7.7814    8.6323   56.4288 O   0  0  0  0  0  0  0  0  0  0  0  0
    5.8554    7.6976   58.2236 O   0  0  0  0  0  0  0  0  0  0  0  0
   11.9818   10.5009   59.6600 C   0  0  2  0  0  0  0  0  0  0  0  0
   10.7276    9.6390   59.8548 C   0  0  1  0  0  0  0  0  0  0  0  0
   10.3280    9.0825   58.4853 C   0  0  2  0  0  0  0  0  0  0  0  0
   10.0481   10.2508   57.5151 C   0  0  1  0  0  0  0  0  0  0  0  0
   11.3229   11.1222   57.4418 C   0  0  1  0  0  0  0  0  0  0  0  0
   11.0769   12.3753   56.5802 C   0  0  0  0  0  0  0  0  0  0  0  0
   12.4152   11.0738   60.8841 O   0  0  0  0  0  0  0  0  0  0  0  0
   10.9716    8.5694   60.7773 O   0  0  0  0  0  0  0  0  0  0  0  0
    9.1913    8.2359   58.6790 O   0  0  0  0  0  0  0  0  0  0  0  0
   11.7344   11.5615   58.7467 O   0  0  0  0  0  0  0  0  0  0  0  0
   12.2961   12.8574   56.0105 O   0  0  0  0  0  0  0  0  0  0  0  0
    7.8952   10.6819   56.1702 H   0  0  0  0  0  0  0  0  0  0  0  0
    8.8238    8.7891   53.9229 H   0  0  0  0  0  0  0  0  0  0  0  0
    6.2466   10.4463   54.2201 H   0  0  0  0  0  0  0  0  0  0  0  0
    5.1174    8.2305   54.3610 H   0  0  0  0  0  0  0  0  0  0  0  0
    5.8655    9.4127   56.4644 H   0  0  0  0  0  0  0  0  0  0  0  0
    6.5070    6.4629   56.7064 H   0  0  0  0  0  0  0  0  0  0  0  0
    4.8318    7.1280   56.5377 H   0  0  0  0  0  0  0  0  0  0  0  0
    8.7905   10.6900   52.7075 H   0  0  0  0  0  0  0  0  0  0  0  0
    7.0005   10.2509   52.0917 H   0  0  0  0  0  0  0  0  0  0  0  0
    6.4496    6.3577   54.6023 H   0  0  0  0  0  0  0  0  0  0  0  0
    5.5484    6.9025   58.7427 H   0  0  0  0  0  0  0  0  0  0  0  0
   12.8088    9.8860   59.2908 H   0  0  0  0  0  0  0  0  0  0  0  0
    9.9148   10.2422   60.2770 H   0  0  0  0  0  0  0  0  0  0  0  0
   11.1240    8.4385   58.0941 H   0  0  0  0  0  0  0  0  0  0  0  0
    9.2149   10.8494   57.9069 H   0  0  0  0  0  0  0  0  0  0  0  0
   12.1419   10.5522   56.9817 H   0  0  0  0  0  0  0  0  0  0  0  0
   10.6687   13.1841   57.1947 H   0  0  0  0  0  0  0  0  0  0  0  0
   10.3864   12.1859   55.7561 H   0  0  0  0  0  0  0  0  0  0  0  0
   11.6665   11.5801   61.2319 H   0  0  0  0  0  0  0  0  0  0  0  0
   10.1438    8.0495   60.8035 H   0  0  0  0  0  0  0  0  0  0  0  0
    8.9092    7.9339   57.7913 H   0  0  0  0  0  0  0  0  0  0  0  0
   12.6533   12.1558   55.4482 H   0  0  0  0  0  0  0  0  0  0  0  0
  1  2  1  0  0  0  0
  1  7  1  0  0  0  0
  1 11  1  0  0  0  0
  1 24  1  1  0  0  0
  2  3  1  0  0  0  0
  2  8  1  0  0  0  0
  2 25  1  6  0  0  0
  3  4  1  0  0  0  0
  3  9  1  0  0  0  0
  3 26  1  1  0  0  0
  4  5  1  0  0  0  0
  4 10  1  0  0  0  0
  4 27  1  6  0  0  0
  5  6  1  0  0  0  0
  5 11  1  0  0  0  0
  5 28  1  1  0  0  0
  6 12  1  0  0  0  0
  6 29  1  0  0  0  0
  6 30  1  0  0  0  0
  7 16  1  0  0  0  0
  8 31  1  0  0  0  0
  9 32  1  0  0  0  0
 10 33  1  0  0  0  0
 12 34  1  0  0  0  0
 13 14  1  0  0  0  0
 13 19  1  0  0  0  0
 13 22  1  0  0  0  0
 13 35  1  6  0  0  0
 14 15  1  0  0  0  0
 14 20  1  0  0  0  0
 14 36  1  1  0  0  0
 15 16  1  0  0  0  0
 15 21  1  0  0  0  0
 15 37  1  6  0  0  0
 16 17  1  0  0  0  0
 16 38  1  1  0  0  0
 17 18  1  0  0  0  0
 17 22  1  0  0  0  0
 17 39  1  6  0  0  0
 18 23  1  0  0  0  0
 18 40  1  0  0  0  0
 18 41  1  0  0  0  0
 19 42  1  0  0  0  0
 20 43  1  0  0  0  0
 21 44  1  0  0  0  0
 23 45  1  0  0  0  0
M  END
$$$$
