NON
 OpenBabel04041916183D

 23 23  0  0  1  0  0  0  0  0999 V2000
   48.1803   25.1546   42.7489 N   0  3  0  0  0  0  0  0  0  0  0  0
   47.0983   26.2288   42.7793 C   0  0  2  0  0  0  0  0  0  0  0  0
   46.7589   26.6080   44.2541 C   0  0  0  0  0  0  0  0  0  0  0  0
   45.7988   27.3849   44.4398 O   0  0  0  0  0  0  0  0  0  0  0  0
   47.5535   26.0244   45.0581 O   0  0  0  0  0  0  0  0  0  0  0  0
   45.8819   25.7143   42.0034 C   0  0  0  0  0  0  0  0  0  0  0  0
   46.1898   25.4002   40.5712 C   0  0  0  0  0  0  0  0  0  0  0  0
   46.0303   26.3915   39.5020 C   0  0  0  0  0  0  0  0  0  0  0  0
   46.5886   24.3055   39.9106 C   0  0  0  0  0  0  0  0  0  0  0  0
   46.8771   22.9457   40.4430 C   0  0  0  0  0  0  0  0  0  0  0  0
   45.6227   27.5328   39.6551 O   0  0  0  0  0  0  0  0  0  0  0  0
   46.4457   25.8159   38.3459 N   0  3  0  0  0  0  0  0  0  0  0  0
   46.7799   24.4634   38.5428 O   0  0  0  0  0  0  0  0  0  0  0  0
   48.4886   24.8933   41.8152 H   0  0  0  0  0  0  0  0  0  0  0  0
   48.9536   25.5113   43.3310 H   0  0  0  0  0  0  0  0  0  0  0  0
   47.5447   27.1029   42.2954 H   0  0  0  0  0  0  0  0  0  0  0  0
   45.0844   26.4677   42.0444 H   0  0  0  0  0  0  0  0  0  0  0  0
   45.4703   24.8242   42.4969 H   0  0  0  0  0  0  0  0  0  0  0  0
   47.2747   22.2998   39.6519 H   0  0  0  0  0  0  0  0  0  0  0  0
   45.9662   22.4819   40.8327 H   0  0  0  0  0  0  0  0  0  0  0  0
   47.6283   22.9720   41.2358 H   0  0  0  0  0  0  0  0  0  0  0  0
   46.3999   26.2161   37.4173 H   0  0  0  0  0  0  0  0  0  0  0  0
   47.8325   24.3641   43.3076 H   0  0  0  0  0  0  0  0  0  0  0  0
  1  2  1  0  0  0  0
  1 14  1  0  0  0  0
  1 15  1  0  0  0  0
  1 23  1  0  0  0  0
  2  3  1  0  0  0  0
  2  6  1  0  0  0  0
  2 16  1  6  0  0  0
  3  4  2  0  0  0  0
  3  5  1  0  0  0  0
  6  7  1  0  0  0  0
  6 17  1  0  0  0  0
  6 18  1  0  0  0  0
  7  8  1  0  0  0  0
  7  9  2  0  0  0  0
  8 11  2  0  0  0  0
  8 12  1  0  0  0  0
  9 10  1  0  0  0  0
  9 13  1  0  0  0  0
 10 19  1  0  0  0  0
 10 20  1  0  0  0  0
 10 21  1  0  0  0  0
 12 13  1  0  0  0  0
 12 22  1  0  0  0  0
M  CHG  2   1   1  12   1
M  END
$$$$
