NON
 OpenBabel04041915283D

 36 35  0  0  1  0  0  0  0  0999 V2000
    6.7190   38.3023   -1.7484 N   0  3  0  0  0  0  0  0  0  0  0  0
    7.9571   38.3778   -2.6288 C   0  0  2  0  0  0  0  0  0  0  0  0
    7.6873   39.3536   -3.8137 C   0  0  0  0  0  0  0  0  0  0  0  0
    8.6766   39.9560   -4.2800 O   0  0  0  0  0  0  0  0  0  0  0  0
    6.4366   39.4694   -4.0210 O   0  0  0  0  0  0  0  0  0  0  0  0
    8.2352   36.9687   -3.1379 C   0  0  0  0  0  0  0  0  0  0  0  0
    9.6359   36.8371   -3.7436 C   0  0  0  0  0  0  0  0  0  0  0  0
    9.8880   35.4250   -4.2306 C   0  0  0  0  0  0  0  0  0  0  0  0
    9.0474   34.5347   -4.1443 O   0  0  0  0  0  0  0  0  0  0  0  0
   11.1284   35.2530   -4.7881 N   0  0  0  0  0  0  0  0  0  0  0  0
   11.6062   33.9362   -5.2239 C   0  0  2  0  0  0  0  0  0  0  0  0
   13.0732   33.7884   -4.7719 C   0  0  0  0  0  0  0  0  0  0  0  0
   13.7863   34.7754   -4.6028 O   0  0  0  0  0  0  0  0  0  0  0  0
   11.5331   33.8192   -6.7530 C   0  0  0  0  0  0  0  0  0  0  0  0
   11.3743   32.0896   -7.3213 S   0  0  0  0  0  0  0  0  0  0  0  0
   13.5096   32.4831   -4.7229 N   0  0  0  0  0  0  0  0  0  0  0  0
   14.8330   32.1122   -4.2076 C   0  0  0  0  0  0  0  0  0  0  0  0
   14.8972   31.6406   -2.7290 C   0  0  0  0  0  0  0  0  0  0  0  0
   15.9520   31.0155   -2.4206 O   0  0  0  0  0  0  0  0  0  0  0  0
   13.8737   31.8869   -2.0257 O   0  0  0  0  0  0  0  0  0  0  0  0
    6.7701   37.6355   -0.9809 H   0  0  0  0  0  0  0  0  0  0  0  0
    6.5095   39.2558   -1.4348 H   0  0  0  0  0  0  0  0  0  0  0  0
    8.7569   38.7517   -1.9813 H   0  0  0  0  0  0  0  0  0  0  0  0
    7.4869   36.6819   -3.8835 H   0  0  0  0  0  0  0  0  0  0  0  0
    8.1382   36.2507   -2.3119 H   0  0  0  0  0  0  0  0  0  0  0  0
   10.3902   37.0828   -2.9872 H   0  0  0  0  0  0  0  0  0  0  0  0
    9.7554   37.5139   -4.5935 H   0  0  0  0  0  0  0  0  0  0  0  0
   11.8357   35.9791   -4.7069 H   0  0  0  0  0  0  0  0  0  0  0  0
   10.9953   33.1721   -4.7308 H   0  0  0  0  0  0  0  0  0  0  0  0
   12.4228   34.2564   -7.2243 H   0  0  0  0  0  0  0  0  0  0  0  0
   10.6665   34.3635   -7.1444 H   0  0  0  0  0  0  0  0  0  0  0  0
   11.3985   32.3533   -8.6338 H   0  0  0  0  0  0  0  0  0  0  0  0
   12.8084   31.7604   -4.6189 H   0  0  0  0  0  0  0  0  0  0  0  0
   15.5216   32.9536   -4.3348 H   0  0  0  0  0  0  0  0  0  0  0  0
   15.1725   31.2846   -4.8398 H   0  0  0  0  0  0  0  0  0  0  0  0
    5.9478   38.1019   -2.4087 H   0  0  0  0  0  0  0  0  0  0  0  0
  1  2  1  0  0  0  0
  1 21  1  0  0  0  0
  1 22  1  0  0  0  0
  1 36  1  0  0  0  0
  2  3  1  0  0  0  0
  2  6  1  0  0  0  0
  2 23  1  1  0  0  0
  3  4  2  0  0  0  0
  3  5  1  0  0  0  0
  6  7  1  0  0  0  0
  6 24  1  0  0  0  0
  6 25  1  0  0  0  0
  7  8  1  0  0  0  0
  7 26  1  0  0  0  0
  7 27  1  0  0  0  0
  8  9  2  0  0  0  0
  8 10  1  0  0  0  0
 10 11  1  0  0  0  0
 10 28  1  0  0  0  0
 11 12  1  0  0  0  0
 11 14  1  0  0  0  0
 11 29  1  1  0  0  0
 12 13  2  0  0  0  0
 12 16  1  0  0  0  0
 14 15  1  0  0  0  0
 14 30  1  0  0  0  0
 14 31  1  0  0  0  0
 15 32  1  0  0  0  0
 16 17  1  0  0  0  0
 16 33  1  0  0  0  0
 17 18  1  0  0  0  0
 17 34  1  0  0  0  0
 17 35  1  0  0  0  0
 18 19  2  0  0  0  0
 18 20  1  0  0  0  0
M  CHG  1   1   1
M  END
$$$$
