NON
 OpenBabel04041915223D

 24 23  0  0  1  0  0  0  0  0999 V2000
   15.3131    9.3847   30.0048 C   0  0  2  0  0  0  0  0  0  0  0  0
   16.7530    8.8919   29.8792 C   0  0  1  0  0  0  0  0  0  0  0  0
   17.2658    8.2004   31.1451 C   0  0  1  0  0  0  0  0  0  0  0  0
   18.7318    7.7700   30.9033 C   0  0  0  0  0  0  0  0  0  0  0  0
   14.4828    8.2290   30.3321 O   0  0  0  0  0  0  0  0  0  0  0  0
   16.8013    7.9382   28.8017 O   0  0  0  0  0  0  0  0  0  0  0  0
   17.1248    9.1427   32.2224 O   0  0  0  0  0  0  0  0  0  0  0  0
   19.5030    8.9200   30.5977 O   0  0  0  0  0  0  0  0  0  0  0  0
   21.0842    8.6368   30.1661 P   0  0  0  0  0  0  0  0  0  0  0  0
   21.6414    7.8842   31.3614 O   0  0  0  0  0  0  0  0  0  0  0  0
   20.9541    7.7805   28.9270 O   0  0  0  0  0  0  0  0  0  0  0  0
   21.6407   10.0296   29.9423 O   0  0  0  0  0  0  0  0  0  0  0  0
   15.0003   10.1407   28.6248 C   0  0  0  0  0  0  0  0  0  0  0  0
   15.5191   11.1640   28.2178 O   0  0  0  0  0  0  0  0  0  0  0  0
   13.9451    9.4755   27.9189 N   0  0  0  0  0  0  0  0  0  0  0  0
   13.6425    9.9468   26.8423 O   0  0  0  0  0  0  0  0  0  0  0  0
   15.1534   10.0958   30.8412 H   0  0  0  0  0  0  0  0  0  0  0  0
   17.3775    9.7604   29.6305 H   0  0  0  0  0  0  0  0  0  0  0  0
   16.6495    7.3179   31.3812 H   0  0  0  0  0  0  0  0  0  0  0  0
   18.7979    7.0625   30.0644 H   0  0  0  0  0  0  0  0  0  0  0  0
   19.1448    7.2679   31.7706 H   0  0  0  0  0  0  0  0  0  0  0  0
   13.5443    8.4731   30.3414 H   0  0  0  0  0  0  0  0  0  0  0  0
   17.7453    7.6812   28.7157 H   0  0  0  0  0  0  0  0  0  0  0  0
   17.5101    8.7304   33.0137 H   0  0  0  0  0  0  0  0  0  0  0  0
  1 13  1  0  0  0  0
  1  5  1  0  0  0  0
  1  2  1  0  0  0  0
  1 17  1  1  0  0  0
  2  6  1  0  0  0  0
  2  3  1  0  0  0  0
  2 18  1  6  0  0  0
  3  7  1  0  0  0  0
  3  4  1  0  0  0  0
  3 19  1  1  0  0  0
  4  8  1  0  0  0  0
  4 20  1  0  0  0  0
  4 21  1  0  0  0  0
  5 22  1  0  0  0  0
  6 23  1  0  0  0  0
  7 24  1  0  0  0  0
  8  9  1  0  0  0  0
  9 12  2  0  0  0  0
  9 11  1  0  0  0  0
  9 10  1  0  0  0  0
 13 15  1  0  0  0  0
 13 14  2  0  0  0  0
 15 16  2  0  0  0  0
M  END
$$$$
