NON
 OpenBabel04041915353D

 23 24  0  0  0  0  0  0  0  0999 V2000
   67.0623   41.4224   23.3718 C   0  0  0  0  0  0  0  0  0  0  0  0
   67.3560   41.0324   24.7147 C   0  0  0  0  0  0  0  0  0  0  0  0
   68.6901   41.0881   25.1583 C   0  0  0  0  0  0  0  0  0  0  0  0
   69.7257   41.4532   24.3081 C   0  0  0  0  0  0  0  0  0  0  0  0
   69.4447   41.8270   22.9989 C   0  0  0  0  0  0  0  0  0  0  0  0
   68.1308   41.8188   22.5065 C   0  0  0  0  0  0  0  0  0  0  0  0
   67.8728   42.1863   21.1761 C   0  0  0  0  0  0  0  0  0  0  0  0
   66.5673   42.1767   20.6789 C   0  0  0  0  0  0  0  0  0  0  0  0
   65.5171   41.8034   21.5007 C   0  0  0  0  0  0  0  0  0  0  0  0
   65.7578   41.4355   22.8286 C   0  0  0  0  0  0  0  0  0  0  0  0
   66.2879   40.6042   25.7157 C   0  0  0  0  0  0  0  0  0  0  0  0
   66.7948   39.6028   26.7676 C   0  0  0  0  0  0  0  0  0  0  0  0
   66.7557   38.3804   26.4442 O   0  0  0  0  0  0  0  0  0  0  0  0
   67.1903   40.1260   27.8513 O   0  0  0  0  0  0  0  0  0  0  0  0
   68.9329   40.8243   26.1893 H   0  0  0  0  0  0  0  0  0  0  0  0
   70.7485   41.4373   24.6700 H   0  0  0  0  0  0  0  0  0  0  0  0
   70.2804   42.1346   22.3684 H   0  0  0  0  0  0  0  0  0  0  0  0
   68.6857   42.4734   20.5119 H   0  0  0  0  0  0  0  0  0  0  0  0
   66.3796   42.4563   19.6448 H   0  0  0  0  0  0  0  0  0  0  0  0
   64.4993   41.7900   21.1171 H   0  0  0  0  0  0  0  0  0  0  0  0
   64.9007   41.1461   23.4400 H   0  0  0  0  0  0  0  0  0  0  0  0
   65.4261   40.1467   25.2183 H   0  0  0  0  0  0  0  0  0  0  0  0
   65.9218   41.4944   26.2443 H   0  0  0  0  0  0  0  0  0  0  0  0
  1 10  2  0  0  0  0
  1  6  1  0  0  0  0
  1  2  1  0  0  0  0
  2 11  1  0  0  0  0
  2  3  2  0  0  0  0
  3  4  1  0  0  0  0
  3 15  1  0  0  0  0
  4  5  2  0  0  0  0
  4 16  1  0  0  0  0
  5  6  1  0  0  0  0
  5 17  1  0  0  0  0
  6  7  2  0  0  0  0
  7  8  1  0  0  0  0
  7 18  1  0  0  0  0
  8  9  2  0  0  0  0
  8 19  1  0  0  0  0
  9 10  1  0  0  0  0
  9 20  1  0  0  0  0
 10 21  1  0  0  0  0
 11 12  1  0  0  0  0
 11 22  1  0  0  0  0
 11 23  1  0  0  0  0
 12 14  2  0  0  0  0
 12 13  1  0  0  0  0
M  END
$$$$
