NON
 OpenBabel04041915233D

 47 49  0  0  1  0  0  0  0  0999 V2000
   74.5671   22.4158   38.8813 N   0  0  0  0  0  0  0  0  0  0  0  0
   73.8181   21.5140   38.1663 C   0  0  0  0  0  0  0  0  0  0  0  0
   74.3354   20.7080   37.3846 O   0  0  0  0  0  0  0  0  0  0  0  0
   72.4622   21.5190   38.3433 N   0  3  0  0  0  0  0  0  0  0  0  0
   71.7441   22.3525   39.1449 C   0  0  0  0  0  0  0  0  0  0  0  0
   70.5238   22.3314   39.2093 O   0  0  0  0  0  0  0  0  0  0  0  0
   72.5806   23.3166   39.9550 C   0  0  0  0  0  0  0  0  0  0  0  0
   72.0282   24.1646   40.7805 N   0  0  0  0  0  0  0  0  0  0  0  0
   72.8578   25.0616   41.5072 C   0  0  0  0  0  0  0  0  0  0  0  0
   72.2418   25.9870   42.3905 C   0  0  0  0  0  0  0  0  0  0  0  0
   72.9925   26.9068   43.1500 C   0  0  0  0  0  0  0  0  0  0  0  0
   72.3399   27.9122   44.0705 C   0  0  0  0  0  0  0  0  0  0  0  0
   74.3912   26.8904   43.0271 C   0  0  0  0  0  0  0  0  0  0  0  0
   75.2613   27.8520   43.8009 C   0  0  0  0  0  0  0  0  0  0  0  0
   75.0003   25.9698   42.1532 C   0  0  0  0  0  0  0  0  0  0  0  0
   74.2666   25.0496   41.3753 C   0  0  0  0  0  0  0  0  0  0  0  0
   74.8693   24.1349   40.4725 N   0  3  0  0  0  0  0  0  0  0  0  0
   74.0740   23.2546   39.7390 C   0  0  0  0  0  0  0  0  0  0  0  0
   76.3372   24.0126   40.4211 C   0  0  0  0  0  0  0  0  0  0  0  0
   76.9646   24.7979   39.2623 C   0  0  2  0  0  0  0  0  0  0  0  0
   76.8280   24.0578   38.0323 O   0  0  0  0  0  0  0  0  0  0  0  0
   78.4817   25.0361   39.5262 C   0  0  2  0  0  0  0  0  0  0  0  0
   79.1646   23.8382   39.9286 O   0  0  0  0  0  0  0  0  0  0  0  0
   78.7435   26.0795   40.6401 C   0  0  2  0  0  0  0  0  0  0  0  0
   77.8208   27.1630   40.5050 O   0  0  0  0  0  0  0  0  0  0  0  0
   80.1470   26.7047   40.6573 C   0  0  0  0  0  0  0  0  0  0  0  0
   80.5488   27.0537   39.3352 O   0  0  0  0  0  0  0  0  0  0  0  0
   71.9513   20.8613   37.7712 H   0  0  0  0  0  0  0  0  0  0  0  0
   71.1555   25.9852   42.4721 H   0  0  0  0  0  0  0  0  0  0  0  0
   71.2503   27.8360   44.0839 H   0  0  0  0  0  0  0  0  0  0  0  0
   72.5951   28.9334   43.7598 H   0  0  0  0  0  0  0  0  0  0  0  0
   72.6945   27.7697   45.0984 H   0  0  0  0  0  0  0  0  0  0  0  0
   76.3272   27.7040   43.5944 H   0  0  0  0  0  0  0  0  0  0  0  0
   75.1165   27.7155   44.8777 H   0  0  0  0  0  0  0  0  0  0  0  0
   75.0179   28.8843   43.5296 H   0  0  0  0  0  0  0  0  0  0  0  0
   76.0840   26.0103   42.1033 H   0  0  0  0  0  0  0  0  0  0  0  0
   76.6024   22.9547   40.3067 H   0  0  0  0  0  0  0  0  0  0  0  0
   76.7846   24.3088   41.3675 H   0  0  0  0  0  0  0  0  0  0  0  0
   76.4579   25.7548   39.0826 H   0  0  0  0  0  0  0  0  0  0  0  0
   75.8756   23.8641   37.9174 H   0  0  0  0  0  0  0  0  0  0  0  0
   78.9143   25.3459   38.5694 H   0  0  0  0  0  0  0  0  0  0  0  0
   78.9613   23.1412   39.2773 H   0  0  0  0  0  0  0  0  0  0  0  0
   78.5885   25.6090   41.6187 H   0  0  0  0  0  0  0  0  0  0  0  0
   78.1846   27.7247   39.7906 H   0  0  0  0  0  0  0  0  0  0  0  0
   80.9073   26.0697   41.1213 H   0  0  0  0  0  0  0  0  0  0  0  0
   80.1081   27.6457   41.2213 H   0  0  0  0  0  0  0  0  0  0  0  0
   80.7085   26.2165   38.8617 H   0  0  0  0  0  0  0  0  0  0  0  0
  1 18  1  0  0  0  0
  1  2  1  0  0  0  0
  2  4  1  0  0  0  0
  2  3  2  0  0  0  0
  4  5  1  0  0  0  0
  4 28  1  0  0  0  0
  5  7  1  0  0  0  0
  5  6  2  0  0  0  0
  7 18  2  0  0  0  0
  7  8  1  0  0  0  0
  8  9  2  0  0  0  0
  9 16  1  0  0  0  0
  9 10  1  0  0  0  0
 10 11  2  0  0  0  0
 10 29  1  0  0  0  0
 11 13  1  0  0  0  0
 11 12  1  0  0  0  0
 12 30  1  0  0  0  0
 12 31  1  0  0  0  0
 12 32  1  0  0  0  0
 13 15  2  0  0  0  0
 13 14  1  0  0  0  0
 14 33  1  0  0  0  0
 14 34  1  0  0  0  0
 14 35  1  0  0  0  0
 15 16  1  0  0  0  0
 15 36  1  0  0  0  0
 16 17  2  0  0  0  0
 17 19  1  0  0  0  0
 17 18  1  0  0  0  0
 19 20  1  0  0  0  0
 19 37  1  0  0  0  0
 19 38  1  0  0  0  0
 20 22  1  0  0  0  0
 20 21  1  0  0  0  0
 20 39  1  6  0  0  0
 21 40  1  0  0  0  0
 22 24  1  0  0  0  0
 22 23  1  0  0  0  0
 22 41  1  6  0  0  0
 23 42  1  0  0  0  0
 24 26  1  0  0  0  0
 24 25  1  0  0  0  0
 24 43  1  1  0  0  0
 25 44  1  0  0  0  0
 26 27  1  0  0  0  0
 26 45  1  0  0  0  0
 26 46  1  0  0  0  0
 27 47  1  0  0  0  0
M  CHG  2   4   1  17   1
M  END
$$$$
