NON
 OpenBabel04041916113D

 20 20  0  0  1  0  0  0  0  0999 V2000
   51.0562   36.3755   26.2146 C   0  0  2  0  0  0  0  0  0  0  0  0
   51.5579   37.7507   25.7576 C   0  0  1  0  0  0  0  0  0  0  0  0
   50.6369   38.8443   26.3121 C   0  0  1  0  0  0  0  0  0  0  0  0
   50.4818   38.7113   27.8372 C   0  0  1  0  0  0  0  0  0  0  0  0
   50.0147   37.2940   28.1733 C   0  0  0  0  0  0  0  0  0  0  0  0
   49.8230   36.0718   25.5848 O   0  0  0  0  0  0  0  0  0  0  0  0
   52.9100   37.9665   26.2012 O   0  0  0  0  0  0  0  0  0  0  0  0
   51.1561   40.1335   25.9574 O   0  0  0  0  0  0  0  0  0  0  0  0
   51.7153   38.9713   28.5219 O   0  0  0  0  0  0  0  0  0  0  0  0
   50.8917   36.2973   27.6324 O   0  0  0  0  0  0  0  0  0  0  0  0
   51.7913   35.6119   25.9332 H   0  0  0  0  0  0  0  0  0  0  0  0
   51.5727   37.8122   24.6622 H   0  0  0  0  0  0  0  0  0  0  0  0
   49.6431   38.7554   25.8572 H   0  0  0  0  0  0  0  0  0  0  0  0
   49.7623   39.4500   28.2089 H   0  0  0  0  0  0  0  0  0  0  0  0
   48.9950   37.1147   27.8097 H   0  0  0  0  0  0  0  0  0  0  0  0
   50.0131   37.1467   29.2576 H   0  0  0  0  0  0  0  0  0  0  0  0
   49.6776   35.1271   25.7809 H   0  0  0  0  0  0  0  0  0  0  0  0
   53.1072   38.9082   26.0192 H   0  0  0  0  0  0  0  0  0  0  0  0
   51.0982   40.2156   24.9895 H   0  0  0  0  0  0  0  0  0  0  0  0
   52.3805   38.3605   28.1450 H   0  0  0  0  0  0  0  0  0  0  0  0
  1  2  1  0  0  0  0
  1  6  1  0  0  0  0
  1 10  1  0  0  0  0
  1 11  1  6  0  0  0
  2  3  1  0  0  0  0
  2  7  1  0  0  0  0
  2 12  1  6  0  0  0
  3  4  1  0  0  0  0
  3  8  1  0  0  0  0
  3 13  1  6  0  0  0
  4  5  1  0  0  0  0
  4  9  1  0  0  0  0
  4 14  1  1  0  0  0
  5 10  1  0  0  0  0
  5 15  1  0  0  0  0
  5 16  1  0  0  0  0
  6 17  1  0  0  0  0
  7 18  1  0  0  0  0
  8 19  1  0  0  0  0
  9 20  1  0  0  0  0
M  END
$$$$
