NON
 OpenBabel04041916083D

 35 36  0  0  1  0  0  0  0  0999 V2000
   10.0215   17.4575   14.4294 N   0  0  0  0  0  0  0  0  0  0  0  0
   10.4945   16.8920   15.5881 C   0  0  0  0  0  0  0  0  0  0  0  0
    9.8287   15.5947   16.0472 C   0  0  1  0  0  0  0  0  0  0  0  0
    9.5974   15.6495   17.4536 O   0  0  0  0  0  0  0  0  0  0  0  0
    8.5079   15.3612   15.3488 C   0  0  2  0  0  0  0  0  0  0  0  0
    8.0737   14.0664   15.7371 O   0  0  0  0  0  0  0  0  0  0  0  0
    8.7383   15.4451   13.8515 C   0  0  0  0  0  0  0  0  0  0  0  0
    9.0407   16.8892   13.5235 C   0  0  0  0  0  0  0  0  0  0  0  0
   11.4134   17.3853   16.2109 O   0  0  0  0  0  0  0  0  0  0  0  0
    6.6820   13.8821   15.5353 C   0  0  1  0  0  0  0  0  0  0  0  0
    6.3782   12.4192   15.8334 C   0  0  1  0  0  0  0  0  0  0  0  0
    4.8764   12.1660   15.7482 C   0  0  2  0  0  0  0  0  0  0  0  0
    4.1033   13.2019   16.5596 C   0  0  1  0  0  0  0  0  0  0  0  0
    4.5642   14.5960   16.1873 C   0  0  0  0  0  0  0  0  0  0  0  0
    7.0705   11.6158   14.8730 O   0  0  0  0  0  0  0  0  0  0  0  0
    4.6178   10.8475   16.2574 O   0  0  0  0  0  0  0  0  0  0  0  0
    2.7111   13.1078   16.2774 O   0  0  0  0  0  0  0  0  0  0  0  0
    5.9529   14.7281   16.4122 O   0  0  0  0  0  0  0  0  0  0  0  0
   10.4103   18.3711   14.2297 H   0  0  0  0  0  0  0  0  0  0  0  0
   10.5183   14.7735   15.8338 H   0  0  0  0  0  0  0  0  0  0  0  0
   10.4679   15.7701   17.8716 H   0  0  0  0  0  0  0  0  0  0  0  0
    7.7718   16.1196   15.6459 H   0  0  0  0  0  0  0  0  0  0  0  0
    7.8603   15.1110   13.2975 H   0  0  0  0  0  0  0  0  0  0  0  0
    9.5870   14.8100   13.5632 H   0  0  0  0  0  0  0  0  0  0  0  0
    9.4369   16.9679   12.5065 H   0  0  0  0  0  0  0  0  0  0  0  0
    8.1244   17.4868   13.5872 H   0  0  0  0  0  0  0  0  0  0  0  0
    6.4306   14.1019   14.4881 H   0  0  0  0  0  0  0  0  0  0  0  0
    6.7342   12.1792   16.8425 H   0  0  0  0  0  0  0  0  0  0  0  0
    4.5449   12.1850   14.7020 H   0  0  0  0  0  0  0  0  0  0  0  0
    4.2773   13.0317   17.6269 H   0  0  0  0  0  0  0  0  0  0  0  0
    4.0452   15.3283   16.8035 H   0  0  0  0  0  0  0  0  0  0  0  0
    4.3395   14.8037   15.1341 H   0  0  0  0  0  0  0  0  0  0  0  0
    6.8908   10.6893   15.1113 H   0  0  0  0  0  0  0  0  0  0  0  0
    3.6657   10.6754   16.1859 H   0  0  0  0  0  0  0  0  0  0  0  0
    2.4135   12.2187   16.5193 H   0  0  0  0  0  0  0  0  0  0  0  0
  1  2  1  0  0  0  0
  1  8  1  0  0  0  0
  1 19  1  0  0  0  0
  2  3  1  0  0  0  0
  2  9  2  0  0  0  0
  3  4  1  0  0  0  0
  3  5  1  0  0  0  0
  3 20  1  6  0  0  0
  4 21  1  0  0  0  0
  5  6  1  0  0  0  0
  5  7  1  0  0  0  0
  5 22  1  1  0  0  0
  6 10  1  0  0  0  0
  7  8  1  0  0  0  0
  7 23  1  0  0  0  0
  7 24  1  0  0  0  0
  8 25  1  0  0  0  0
  8 26  1  0  0  0  0
 10 11  1  0  0  0  0
 10 18  1  0  0  0  0
 10 27  1  6  0  0  0
 11 12  1  0  0  0  0
 11 15  1  0  0  0  0
 11 28  1  1  0  0  0
 12 13  1  0  0  0  0
 12 16  1  0  0  0  0
 12 29  1  6  0  0  0
 13 14  1  0  0  0  0
 13 17  1  0  0  0  0
 13 30  1  1  0  0  0
 14 18  1  0  0  0  0
 14 31  1  0  0  0  0
 14 32  1  0  0  0  0
 15 33  1  0  0  0  0
 16 34  1  0  0  0  0
 17 35  1  0  0  0  0
M  END
$$$$
