NON
 OpenBabel04041917083D

 23 23  0  0  1  0  0  0  0  0999 V2000
   31.1692    8.6967   48.3913 N   0  3  0  0  0  0  0  0  0  0  0  0
   30.3215    9.9183   48.0638 C   0  0  2  0  0  0  0  0  0  0  0  0
   30.9530   11.2190   48.6149 C   0  0  0  0  0  0  0  0  0  0  0  0
   30.3661   12.2891   48.3489 O   0  0  0  0  0  0  0  0  0  0  0  0
   28.9368    9.7821   48.6997 C   0  0  0  0  0  0  0  0  0  0  0  0
   28.2293    8.4862   48.3676 C   0  0  0  0  0  0  0  0  0  0  0  0
   27.5530    7.7907   49.3791 C   0  0  0  0  0  0  0  0  0  0  0  0
   28.1998    7.9806   47.0590 C   0  0  0  0  0  0  0  0  0  0  0  0
   26.8944    6.5951   49.0954 C   0  0  0  0  0  0  0  0  0  0  0  0
   27.5533    6.7771   46.7815 C   0  0  0  0  0  0  0  0  0  0  0  0
   26.9027    6.0855   47.7994 C   0  0  0  0  0  0  0  0  0  0  0  0
   32.0209   10.9595   49.2551 O   0  0  0  0  0  0  0  0  0  0  0  0
   30.7843    7.8080   48.0700 H   0  0  0  0  0  0  0  0  0  0  0  0
   32.1107    8.8871   48.0223 H   0  0  0  0  0  0  0  0  0  0  0  0
   30.2834    9.9694   46.9714 H   0  0  0  0  0  0  0  0  0  0  0  0
   28.2888   10.6069   48.3809 H   0  0  0  0  0  0  0  0  0  0  0  0
   29.0332    9.8749   49.7917 H   0  0  0  0  0  0  0  0  0  0  0  0
   27.5213    8.1807   50.3954 H   0  0  0  0  0  0  0  0  0  0  0  0
   28.6657    8.5193   46.2364 H   0  0  0  0  0  0  0  0  0  0  0  0
   26.3643    6.0676   49.8847 H   0  0  0  0  0  0  0  0  0  0  0  0
   27.5415    6.3884   45.7656 H   0  0  0  0  0  0  0  0  0  0  0  0
   26.3824    5.1568   47.5781 H   0  0  0  0  0  0  0  0  0  0  0  0
   31.3174    8.7118   49.4091 H   0  0  0  0  0  0  0  0  0  0  0  0
  1  2  1  0  0  0  0
  1 13  1  0  0  0  0
  1 14  1  0  0  0  0
  1 23  1  0  0  0  0
  2  3  1  0  0  0  0
  2  5  1  0  0  0  0
  2 15  1  6  0  0  0
  3  4  2  0  0  0  0
  3 12  1  0  0  0  0
  5  6  1  0  0  0  0
  5 16  1  0  0  0  0
  5 17  1  0  0  0  0
  6  7  2  0  0  0  0
  6  8  1  0  0  0  0
  7  9  1  0  0  0  0
  7 18  1  0  0  0  0
  8 10  2  0  0  0  0
  8 19  1  0  0  0  0
  9 11  2  0  0  0  0
  9 20  1  0  0  0  0
 10 11  1  0  0  0  0
 10 21  1  0  0  0  0
 11 22  1  0  0  0  0
M  CHG  1   1   1
M  END
$$$$
