NPE
 OpenBabel04041914473D

 32 32  0  0  0  0  0  0  0  0999 V2000
   56.6608   -8.8684   14.9360 C   0  0  0  0  0  0  0  0  0  0  0  0
   55.8286   -9.0216   16.1374 N   0  0  0  0  0  0  0  0  0  0  0  0
   54.8470   -8.2738   16.2667 O   0  0  0  0  0  0  0  0  0  0  0  0
   56.1411   -9.9009   16.9537 O   0  0  0  0  0  0  0  0  0  0  0  0
   57.7777   -9.6973   14.7739 C   0  0  0  0  0  0  0  0  0  0  0  0
   58.5642   -9.5748   13.6213 C   0  0  0  0  0  0  0  0  0  0  0  0
   58.2416   -8.6227   12.6570 C   0  0  0  0  0  0  0  0  0  0  0  0
   57.1240   -7.8017   12.8137 C   0  0  0  0  0  0  0  0  0  0  0  0
   56.3259   -7.9190   13.9588 C   0  0  0  0  0  0  0  0  0  0  0  0
   58.9646   -8.6338   11.5017 O   0  0  0  0  0  0  0  0  0  0  0  0
   60.0548   -7.4822   11.1049 P   0  0  1  0  0  0  0  0  0  0  0  0
   60.0515   -7.3393    9.5979 O   0  0  0  0  0  0  0  0  0  0  0  0
   59.8759   -6.2634   11.9904 O   0  0  0  0  0  0  0  0  0  0  0  0
   61.6288   -8.2979   11.5860 C   0  0  0  0  0  0  0  0  0  0  0  0
   61.8141   -9.7083   11.0331 C   0  0  0  0  0  0  0  0  0  0  0  0
   63.2521  -10.2082   11.2209 C   0  0  0  0  0  0  0  0  0  0  0  0
   63.2833  -11.6762   11.6271 C   0  0  0  0  0  0  0  0  0  0  0  0
   64.7361  -12.1029   11.8319 C   0  0  0  0  0  0  0  0  0  0  0  0
   65.0989  -12.2328   13.0368 O   0  0  0  0  0  0  0  0  0  0  0  0
   65.3910  -12.3181   10.7720 O   0  0  0  0  0  0  0  0  0  0  0  0
   58.0519  -10.4448   15.5085 H   0  0  0  0  0  0  0  0  0  0  0  0
   59.4219  -10.2194   13.4701 H   0  0  0  0  0  0  0  0  0  0  0  0
   56.8829   -7.0790   12.0358 H   0  0  0  0  0  0  0  0  0  0  0  0
   55.4597   -7.2715   14.0673 H   0  0  0  0  0  0  0  0  0  0  0  0
   61.6965   -8.3286   12.6800 H   0  0  0  0  0  0  0  0  0  0  0  0
   62.4433   -7.6545   11.2323 H   0  0  0  0  0  0  0  0  0  0  0  0
   61.5610   -9.7253    9.9670 H   0  0  0  0  0  0  0  0  0  0  0  0
   61.1015  -10.3753   11.5314 H   0  0  0  0  0  0  0  0  0  0  0  0
   63.7801   -9.6125   11.9743 H   0  0  0  0  0  0  0  0  0  0  0  0
   63.8023  -10.0695   10.2805 H   0  0  0  0  0  0  0  0  0  0  0  0
   62.8258  -12.3003   10.8500 H   0  0  0  0  0  0  0  0  0  0  0  0
   62.7090  -11.8281   12.5488 H   0  0  0  0  0  0  0  0  0  0  0  0
  1  9  2  0  0  0  0
  1  5  1  0  0  0  0
  1  2  1  0  0  0  0
  2  4  2  0  0  0  0
  2  3  2  0  0  0  0
  5  6  2  0  0  0  0
  5 21  1  0  0  0  0
  6  7  1  0  0  0  0
  6 22  1  0  0  0  0
  7 10  1  0  0  0  0
  7  8  2  0  0  0  0
  8  9  1  0  0  0  0
  8 23  1  0  0  0  0
  9 24  1  0  0  0  0
 11 10  1  1  0  0  0
 11 14  1  0  0  0  0
 11 13  2  0  0  0  0
 11 12  1  0  0  0  0
 14 15  1  0  0  0  0
 14 25  1  0  0  0  0
 14 26  1  0  0  0  0
 15 16  1  0  0  0  0
 15 27  1  0  0  0  0
 15 28  1  0  0  0  0
 16 17  1  0  0  0  0
 16 29  1  0  0  0  0
 16 30  1  0  0  0  0
 17 18  1  0  0  0  0
 17 31  1  0  0  0  0
 17 32  1  0  0  0  0
 18 20  2  0  0  0  0
 18 19  1  0  0  0  0
M  END
$$$$
