NPE
 OpenBabel04041913563D

 32 32  0  0  0  0  0  0  0  0999 V2000
   18.3149    6.1451   32.7534 C   0  0  0  0  0  0  0  0  0  0  0  0
   18.7825    5.4355   31.5408 N   0  0  0  0  0  0  0  0  0  0  0  0
   19.4672    6.0684   30.7182 O   0  0  0  0  0  0  0  0  0  0  0  0
   18.4464    4.2472   31.3915 O   0  0  0  0  0  0  0  0  0  0  0  0
   18.6350    7.4951   32.9310 C   0  0  0  0  0  0  0  0  0  0  0  0
   18.1778    8.1755   34.0818 C   0  0  0  0  0  0  0  0  0  0  0  0
   17.3839    7.5059   35.0185 C   0  0  0  0  0  0  0  0  0  0  0  0
   17.0408    6.1634   34.8111 C   0  0  0  0  0  0  0  0  0  0  0  0
   17.4989    5.4776   33.6691 C   0  0  0  0  0  0  0  0  0  0  0  0
   16.9624    8.1353   36.1816 O   0  0  0  0  0  0  0  0  0  0  0  0
   17.9856    7.9193   37.4523 P   0  0  2  0  0  0  0  0  0  0  0  0
   19.1466    8.8806   37.2714 O   0  0  0  0  0  0  0  0  0  0  0  0
   18.2488    6.4288   37.5556 O   0  0  0  0  0  0  0  0  0  0  0  0
   17.0774    8.4055   39.0080 C   0  0  0  0  0  0  0  0  0  0  0  0
   17.9076    7.8707   40.1965 C   0  0  0  0  0  0  0  0  0  0  0  0
   17.2660    7.9898   41.5812 C   0  0  0  0  0  0  0  0  0  0  0  0
   16.7286    6.6316   42.0496 C   0  0  0  0  0  0  0  0  0  0  0  0
   17.3180    6.1466   43.3771 C   0  0  0  0  0  0  0  0  0  0  0  0
   18.0515    5.1138   43.3747 O   0  0  0  0  0  0  0  0  0  0  0  0
   16.9204    6.8181   44.3772 O   0  0  0  0  0  0  0  0  0  0  0  0
   19.2535    8.0324   32.2164 H   0  0  0  0  0  0  0  0  0  0  0  0
   18.4629    9.2122   34.2581 H   0  0  0  0  0  0  0  0  0  0  0  0
   16.4525    5.6419   35.5677 H   0  0  0  0  0  0  0  0  0  0  0  0
   17.2262    4.4321   33.5449 H   0  0  0  0  0  0  0  0  0  0  0  0
   16.0674    7.9761   39.0397 H   0  0  0  0  0  0  0  0  0  0  0  0
   16.9957    9.4969   39.0872 H   0  0  0  0  0  0  0  0  0  0  0  0
   18.8689    8.3965   40.2008 H   0  0  0  0  0  0  0  0  0  0  0  0
   18.1324    6.8185   39.9978 H   0  0  0  0  0  0  0  0  0  0  0  0
   16.4563    8.7296   41.5474 H   0  0  0  0  0  0  0  0  0  0  0  0
   18.0198    8.3569   42.2898 H   0  0  0  0  0  0  0  0  0  0  0  0
   16.8761    5.8715   41.2772 H   0  0  0  0  0  0  0  0  0  0  0  0
   15.6444    6.7360   42.1938 H   0  0  0  0  0  0  0  0  0  0  0  0
  1  9  2  0  0  0  0
  1  5  1  0  0  0  0
  1  2  1  0  0  0  0
  2  4  2  0  0  0  0
  2  3  2  0  0  0  0
  5  6  2  0  0  0  0
  5 21  1  0  0  0  0
  6  7  1  0  0  0  0
  6 22  1  0  0  0  0
  7 10  1  0  0  0  0
  7  8  2  0  0  0  0
  8  9  1  0  0  0  0
  8 23  1  0  0  0  0
  9 24  1  0  0  0  0
 11 10  1  6  0  0  0
 11 14  1  0  0  0  0
 11 13  2  0  0  0  0
 11 12  1  0  0  0  0
 14 15  1  0  0  0  0
 14 25  1  0  0  0  0
 14 26  1  0  0  0  0
 15 16  1  0  0  0  0
 15 27  1  0  0  0  0
 15 28  1  0  0  0  0
 16 17  1  0  0  0  0
 16 29  1  0  0  0  0
 16 30  1  0  0  0  0
 17 18  1  0  0  0  0
 17 31  1  0  0  0  0
 17 32  1  0  0  0  0
 18 20  2  0  0  0  0
 18 19  1  0  0  0  0
M  END
$$$$
