NW1
 OpenBabel04041914223D

 35 36  0  0  0  0  0  0  0  0999 V2000
    2.1856   28.4145    7.2018 N   0  0  0  0  0  0  0  0  0  0  0  0
    1.2695   28.5006    8.1791 C   0  0  0  0  0  0  0  0  0  0  0  0
    0.9985   27.3524    8.9013 O   0  0  0  0  0  0  0  0  0  0  0  0
    1.8913   26.2532    8.6863 C   0  0  0  0  0  0  0  0  0  0  0  0
    1.6497   25.2372    9.8157 C   0  0  0  0  0  0  0  0  0  0  0  0
    0.1499   24.9945   10.0731 C   0  0  0  0  0  0  0  0  0  0  0  0
   -0.0502   24.0304   11.2402 C   0  0  0  0  0  0  0  0  0  0  0  0
    0.6615   22.7133   10.9653 C   0  0  0  0  0  0  0  0  0  0  0  0
    2.1620   22.9757   10.7862 C   0  0  0  0  0  0  0  0  0  0  0  0
    2.3812   23.9020    9.5896 C   0  0  0  0  0  0  0  0  0  0  0  0
    0.5470   29.6492    8.5153 C   0  0  0  0  0  0  0  0  0  0  0  0
   -0.3875   29.6093    9.5417 N   0  0  0  0  0  0  0  0  0  0  0  0
   -0.9724   30.6735    9.7727 O   0  0  0  0  0  0  0  0  0  0  0  0
    0.8974   30.7640    7.7430 C   0  0  0  0  0  0  0  0  0  0  0  0
    0.3348   32.0115    7.9326 N   0  0  0  0  0  0  0  0  0  0  0  0
    1.8329   30.7062    6.7602 N   0  0  0  0  0  0  0  0  0  0  0  0
    2.4363   29.5377    6.5313 C   0  0  0  0  0  0  0  0  0  0  0  0
    3.3773   29.4544    5.5492 N   0  0  0  0  0  0  0  0  0  0  0  0
    2.9351   26.5887    8.7439 H   0  0  0  0  0  0  0  0  0  0  0  0
    1.7064   25.8042    7.7032 H   0  0  0  0  0  0  0  0  0  0  0  0
    2.0576   25.6896   10.7295 H   0  0  0  0  0  0  0  0  0  0  0  0
   -0.3255   24.5893    9.1706 H   0  0  0  0  0  0  0  0  0  0  0  0
   -0.3604   25.9349   10.3101 H   0  0  0  0  0  0  0  0  0  0  0  0
   -1.1188   23.8643   11.4140 H   0  0  0  0  0  0  0  0  0  0  0  0
    0.3557   24.4831   12.1559 H   0  0  0  0  0  0  0  0  0  0  0  0
    0.2594   22.2624   10.0474 H   0  0  0  0  0  0  0  0  0  0  0  0
    0.4865   22.0055   11.7786 H   0  0  0  0  0  0  0  0  0  0  0  0
    2.6966   22.0306   10.6571 H   0  0  0  0  0  0  0  0  0  0  0  0
    2.5553   23.4469   11.6966 H   0  0  0  0  0  0  0  0  0  0  0  0
    3.4547   24.0649    9.4407 H   0  0  0  0  0  0  0  0  0  0  0  0
    2.0025   23.4095    8.6829 H   0  0  0  0  0  0  0  0  0  0  0  0
    0.6425   32.7751    7.3439 H   0  0  0  0  0  0  0  0  0  0  0  0
   -0.3764   32.1520    8.6319 H   0  0  0  0  0  0  0  0  0  0  0  0
    3.8270   28.5606    5.4122 H   0  0  0  0  0  0  0  0  0  0  0  0
    3.6202   30.2704    5.0223 H   0  0  0  0  0  0  0  0  0  0  0  0
  1 17  2  0  0  0  0
  1  2  1  0  0  0  0
  2 11  2  0  0  0  0
  2  3  1  0  0  0  0
  3  4  1  0  0  0  0
  4  5  1  0  0  0  0
  4 19  1  0  0  0  0
  4 20  1  0  0  0  0
  5 10  1  0  0  0  0
  5  6  1  0  0  0  0
  5 21  1  0  0  0  0
  6  7  1  0  0  0  0
  6 22  1  0  0  0  0
  6 23  1  0  0  0  0
  7  8  1  0  0  0  0
  7 24  1  0  0  0  0
  7 25  1  0  0  0  0
  8  9  1  0  0  0  0
  8 26  1  0  0  0  0
  8 27  1  0  0  0  0
  9 10  1  0  0  0  0
  9 28  1  0  0  0  0
  9 29  1  0  0  0  0
 10 30  1  0  0  0  0
 10 31  1  0  0  0  0
 11 14  1  0  0  0  0
 11 12  1  0  0  0  0
 12 13  2  0  0  0  0
 14 16  2  0  0  0  0
 14 15  1  0  0  0  0
 15 32  1  0  0  0  0
 15 33  1  0  0  0  0
 16 17  1  0  0  0  0
 17 18  1  0  0  0  0
 18 34  1  0  0  0  0
 18 35  1  0  0  0  0
M  END
$$$$
