OGA
 OpenBabel04041914543D

 13 12  0  0  0  0  0  0  0  0999 V2000
   22.1936   25.1273   27.5264 C   0  0  0  0  0  0  0  0  0  0  0  0
   21.0310   25.8598   28.2278 C   0  0  0  0  0  0  0  0  0  0  0  0
   18.7054   25.7119   28.9985 C   0  0  0  0  0  0  0  0  0  0  0  0
   17.3408   25.2371   28.4863 C   0  0  0  0  0  0  0  0  0  0  0  0
   21.9152   23.9815   27.0448 O   0  0  0  0  0  0  0  0  0  0  0  0
   23.3437   25.6940   27.5080 O   0  0  0  0  0  0  0  0  0  0  0  0
   21.2445   26.9582   28.7207 O   0  0  0  0  0  0  0  0  0  0  0  0
   16.3492   25.7032   29.1237 O   0  0  0  0  0  0  0  0  0  0  0  0
   19.8291   25.2059   28.2612 N   0  0  0  0  0  0  0  0  0  0  0  0
   17.3483   24.4325   27.5084 O   0  0  0  0  0  0  0  0  0  0  0  0
   18.8549   25.3888   30.0355 H   0  0  0  0  0  0  0  0  0  0  0  0
   18.7499   26.8063   28.9788 H   0  0  0  0  0  0  0  0  0  0  0  0
   19.7499   24.3457   27.7144 H   0  0  0  0  0  0  0  0  0  0  0  0
  1  2  1  0  0  0  0
  1  5  2  0  0  0  0
  1  6  1  0  0  0  0
  2  7  2  0  0  0  0
  2  9  1  0  0  0  0
  3  4  1  0  0  0  0
  3  9  1  0  0  0  0
  3 11  1  0  0  0  0
  3 12  1  0  0  0  0
  4  8  2  0  0  0  0
  4 10  1  0  0  0  0
  9 13  1  0  0  0  0
M  END
$$$$
