OHH
 OpenBabel04041916553D

 82 88  0  0  1  0  0  0  0  0999 V2000
   12.3074   76.8322    4.9852 O   0  0  0  0  0  0  0  0  0  0  0  0
    9.9496   67.4087    6.6039 P   0  0  0  0  0  0  0  0  0  0  0  0
    8.4944   67.3348    6.9034 O   0  0  0  0  0  0  0  0  0  0  0  0
   10.4011   66.5296    5.4347 O   0  0  0  0  0  0  0  0  0  0  0  0
   10.8632   67.2905    7.8204 O   0  0  0  0  0  0  0  0  0  0  0  0
   10.4233   69.1634    6.0078 C   0  0  1  0  0  0  0  0  0  0  0  0
    8.4575   69.7867    4.7469 O   0  0  0  0  0  0  0  0  0  0  0  0
    9.6962   69.4052    4.6988 C   0  0  0  0  0  0  0  0  0  0  0  0
   13.3736   67.7878    1.5576 C   0  0  0  0  0  0  0  0  0  0  0  0
   14.0145   67.7430    0.2778 C   0  0  0  0  0  0  0  0  0  0  0  0
   13.4659   68.4615   -0.8016 C   0  0  0  0  0  0  0  0  0  0  0  0
   12.2653   69.2405   -0.6318 C   0  0  0  0  0  0  0  0  0  0  0  0
   11.6044   69.2963    0.6464 C   0  0  0  0  0  0  0  0  0  0  0  0
   12.1835   68.5411    1.7846 C   0  0  0  0  0  0  0  0  0  0  0  0
   11.5335   68.5975    3.0795 C   0  0  0  0  0  0  0  0  0  0  0  0
   10.3212   69.3686    3.2957 C   0  0  0  0  0  0  0  0  0  0  0  0
    9.7538   70.1058    2.1682 C   0  0  0  0  0  0  0  0  0  0  0  0
   10.4173   70.0432    0.8732 C   0  0  0  0  0  0  0  0  0  0  0  0
    7.4176   70.5535    1.7298 O   0  0  0  0  0  0  0  0  0  0  0  0
    8.4540   70.9891    2.2099 C   0  0  0  0  0  0  0  0  0  0  0  0
   10.3624   72.5568    8.9784 C   0  0  0  0  0  0  0  0  0  0  0  0
    9.1652   71.7877    8.7817 C   0  0  0  0  0  0  0  0  0  0  0  0
    9.1379   70.7007    7.8544 C   0  0  0  0  0  0  0  0  0  0  0  0
   10.3426   70.3719    7.0835 C   0  0  0  0  0  0  0  0  0  0  0  0
   11.6082   71.1593    7.2717 C   0  0  0  0  0  0  0  0  0  0  0  0
   11.5706   72.2610    8.2476 C   0  0  0  0  0  0  0  0  0  0  0  0
   12.7693   73.0659    8.4711 C   0  0  0  0  0  0  0  0  0  0  0  0
   13.9751   72.8248    7.7763 C   0  0  0  0  0  0  0  0  0  0  0  0
   14.0678   71.7646    6.8068 C   0  0  0  0  0  0  0  0  0  0  0  0
   12.8970   70.9536    6.5694 C   0  0  0  0  0  0  0  0  0  0  0  0
    8.6071   72.3766    2.6327 N   0  0  0  0  0  0  0  0  0  0  0  0
    7.3654   73.2566    2.6621 C   0  0  0  0  0  0  0  0  0  0  0  0
   12.1908   73.9359    2.7217 C   0  0  0  0  0  0  0  0  0  0  0  0
   11.9858   74.8253    3.8752 N   0  0  0  0  0  0  0  0  0  0  0  0
   11.1906   74.1804    4.9971 C   0  0  0  0  0  0  0  0  0  0  0  0
    9.8156   73.6661    4.4778 C   0  0  0  0  0  0  0  0  0  0  0  0
    9.9333   72.8553    3.1622 C   0  0  0  0  0  0  0  0  0  0  0  0
   10.8233   73.5938    2.1087 C   0  0  0  0  0  0  0  0  0  0  0  0
   12.4457   76.1962    3.9787 C   0  0  0  0  0  0  0  0  0  0  0  0
   15.1531   78.2247    1.9197 C   0  0  0  0  0  0  0  0  0  0  0  0
   14.4365   77.5586    2.9856 C   0  0  0  0  0  0  0  0  0  0  0  0
   13.1941   76.8779    2.7362 C   0  0  0  0  0  0  0  0  0  0  0  0
   12.6695   76.9284    1.3962 C   0  0  0  0  0  0  0  0  0  0  0  0
   13.3595   77.5821    0.3029 C   0  0  0  0  0  0  0  0  0  0  0  0
   14.6398   78.2465    0.5779 C   0  0  0  0  0  0  0  0  0  0  0  0
   15.3253   78.8886   -0.5048 C   0  0  0  0  0  0  0  0  0  0  0  0
   14.7764   78.8880   -1.8460 C   0  0  0  0  0  0  0  0  0  0  0  0
   13.5481   78.2512   -2.1028 C   0  0  0  0  0  0  0  0  0  0  0  0
   12.8369   77.5990   -1.0392 C   0  0  0  0  0  0  0  0  0  0  0  0
   11.4786   69.0683    5.7333 H   0  0  0  0  0  0  0  0  0  0  0  0
   13.8489   67.1939    2.3813 H   0  0  0  0  0  0  0  0  0  0  0  0
   14.9292   67.1507    0.1378 H   0  0  0  0  0  0  0  0  0  0  0  0
   13.9541   68.4227   -1.7830 H   0  0  0  0  0  0  0  0  0  0  0  0
   11.8802   69.7864   -1.5221 H   0  0  0  0  0  0  0  0  0  0  0  0
   11.9599   68.0045    3.9292 H   0  0  0  0  0  0  0  0  0  0  0  0
    9.9365   70.6316    0.0396 H   0  0  0  0  0  0  0  0  0  0  0  0
   10.3387   73.3801    9.7086 H   0  0  0  0  0  0  0  0  0  0  0  0
    8.2760   72.0742    9.3833 H   0  0  0  0  0  0  0  0  0  0  0  0
    8.1807   70.1413    7.7689 H   0  0  0  0  0  0  0  0  0  0  0  0
   12.7587   73.8962    9.2032 H   0  0  0  0  0  0  0  0  0  0  0  0
   14.8718   73.4522    7.9760 H   0  0  0  0  0  0  0  0  0  0  0  0
   14.9959   71.5804    6.2770 H   0  0  0  0  0  0  0  0  0  0  0  0
   13.0421   70.1539    5.8175 H   0  0  0  0  0  0  0  0  0  0  0  0
    6.4673   72.7382    2.2886 H   0  0  0  0  0  0  0  0  0  0  0  0
    7.5062   74.1498    2.0324 H   0  0  0  0  0  0  0  0  0  0  0  0
    7.1216   73.6074    3.6813 H   0  0  0  0  0  0  0  0  0  0  0  0
   12.7114   73.0189    3.0486 H   0  0  0  0  0  0  0  0  0  0  0  0
   12.8598   74.4098    1.9892 H   0  0  0  0  0  0  0  0  0  0  0  0
   11.0348   74.8724    5.8402 H   0  0  0  0  0  0  0  0  0  0  0  0
   11.7616   73.3320    5.3973 H   0  0  0  0  0  0  0  0  0  0  0  0
    9.1665   74.5297    4.3058 H   0  0  0  0  0  0  0  0  0  0  0  0
    9.3241   73.0389    5.2350 H   0  0  0  0  0  0  0  0  0  0  0  0
   10.5146   71.9634    3.3930 H   0  0  0  0  0  0  0  0  0  0  0  0
   10.9712   72.9832    1.2060 H   0  0  0  0  0  0  0  0  0  0  0  0
   10.3402   74.5255    1.7975 H   0  0  0  0  0  0  0  0  0  0  0  0
   16.1228   78.7218    2.1659 H   0  0  0  0  0  0  0  0  0  0  0  0
   14.8704   77.5620    3.9942 H   0  0  0  0  0  0  0  0  0  0  0  0
   11.7021   76.4379    1.1786 H   0  0  0  0  0  0  0  0  0  0  0  0
   16.2925   79.3998   -0.3395 H   0  0  0  0  0  0  0  0  0  0  0  0
   15.3186   79.3723   -2.6456 H   0  0  0  0  0  0  0  0  0  0  0  0
   13.1274   78.2519   -3.1155 H   0  0  0  0  0  0  0  0  0  0  0  0
   11.8700   77.1042   -1.2819 H   0  0  0  0  0  0  0  0  0  0  0  0
  1 39  2  0  0  0  0
  2  3  2  0  0  0  0
  2  4  1  0  0  0  0
  2  5  1  0  0  0  0
  2  6  1  0  0  0  0
  6  8  1  0  0  0  0
  6 24  1  0  0  0  0
  6 50  1  6  0  0  0
  7  8  2  0  0  0  0
  8 16  1  0  0  0  0
  9 10  2  0  0  0  0
  9 14  1  0  0  0  0
  9 51  1  0  0  0  0
 10 11  1  0  0  0  0
 10 52  1  0  0  0  0
 11 12  2  0  0  0  0
 11 53  1  0  0  0  0
 12 13  1  0  0  0  0
 12 54  1  0  0  0  0
 13 14  2  0  0  0  0
 13 18  1  0  0  0  0
 14 15  1  0  0  0  0
 15 16  2  0  0  0  0
 15 55  1  0  0  0  0
 16 17  1  0  0  0  0
 17 18  2  0  0  0  0
 17 20  1  0  0  0  0
 18 56  1  0  0  0  0
 19 20  2  0  0  0  0
 20 31  1  0  0  0  0
 21 22  2  0  0  0  0
 21 26  1  0  0  0  0
 21 57  1  0  0  0  0
 22 23  1  0  0  0  0
 22 58  1  0  0  0  0
 23 24  2  0  0  0  0
 23 59  1  0  0  0  0
 24 25  1  0  0  0  0
 25 26  2  0  0  0  0
 25 30  1  0  0  0  0
 26 27  1  0  0  0  0
 27 28  2  0  0  0  0
 27 60  1  0  0  0  0
 28 29  1  0  0  0  0
 28 61  1  0  0  0  0
 29 30  2  0  0  0  0
 29 62  1  0  0  0  0
 30 63  1  0  0  0  0
 31 32  1  0  0  0  0
 31 37  1  0  0  0  0
 32 64  1  0  0  0  0
 32 65  1  0  0  0  0
 32 66  1  0  0  0  0
 33 34  1  0  0  0  0
 33 38  1  0  0  0  0
 33 67  1  0  0  0  0
 33 68  1  0  0  0  0
 34 35  1  0  0  0  0
 34 39  1  0  0  0  0
 35 36  1  0  0  0  0
 35 69  1  0  0  0  0
 35 70  1  0  0  0  0
 36 37  1  0  0  0  0
 36 71  1  0  0  0  0
 36 72  1  0  0  0  0
 37 38  1  0  0  0  0
 37 73  1  0  0  0  0
 38 74  1  0  0  0  0
 38 75  1  0  0  0  0
 39 42  1  0  0  0  0
 40 41  2  0  0  0  0
 40 45  1  0  0  0  0
 40 76  1  0  0  0  0
 41 42  1  0  0  0  0
 41 77  1  0  0  0  0
 42 43  2  0  0  0  0
 43 44  1  0  0  0  0
 43 78  1  0  0  0  0
 44 45  2  0  0  0  0
 44 49  1  0  0  0  0
 45 46  1  0  0  0  0
 46 47  2  0  0  0  0
 46 79  1  0  0  0  0
 47 48  1  0  0  0  0
 47 80  1  0  0  0  0
 48 49  2  0  0  0  0
 48 81  1  0  0  0  0
 49 82  1  0  0  0  0
M  END
$$$$
