OIR
 OpenBabel04041916423D

 51 52  0  0  1  0  0  0  0  0999 V2000
   30.8871   42.7061   31.1769 O   0  0  0  0  0  0  0  0  0  0  0  0
   29.7125   43.0795   31.1888 C   0  0  0  0  0  0  0  0  0  0  0  0
   28.7749   42.6674   30.0768 C   0  0  1  0  0  0  0  0  0  0  0  0
   27.3188   42.4258   30.5001 C   0  0  0  0  0  0  0  0  0  0  0  0
   26.9752   40.9993   30.8500 C   0  0  0  0  0  0  0  0  0  0  0  0
   25.7482   40.7325   31.4756 C   0  0  0  0  0  0  0  0  0  0  0  0
   25.3830   39.4319   31.8073 C   0  0  0  0  0  0  0  0  0  0  0  0
   26.2429   38.3675   31.5328 C   0  0  0  0  0  0  0  0  0  0  0  0
   27.4620   38.6070   30.9229 C   0  0  0  0  0  0  0  0  0  0  0  0
   27.8251   39.9035   30.5890 C   0  0  0  0  0  0  0  0  0  0  0  0
   28.9564   43.8644   28.7061 S   0  0  0  0  0  0  0  0  0  0  0  0
   29.2349   43.9716   32.1202 N   0  0  0  0  0  0  0  0  0  0  0  0
   30.1492   44.4139   33.1474 C   0  0  2  0  0  0  0  0  0  0  0  0
   30.4054   43.3240   34.2031 C   0  0  0  0  0  0  0  0  0  0  0  0
   31.5357   43.1426   34.6566 O   0  0  0  0  0  0  0  0  0  0  0  0
   29.2845   42.7370   34.7265 N   0  0  0  0  0  0  0  0  0  0  0  0
   29.3683   41.7741   35.8319 C   0  0  2  0  0  0  0  0  0  0  0  0
   28.3720   40.5857   35.6865 C   0  0  0  0  0  0  0  0  0  0  0  0
   27.3859   40.8342   34.9105 O   0  0  0  0  0  0  0  0  0  0  0  0
   28.6412   39.5479   36.3446 O   0  0  0  0  0  0  0  0  0  0  0  0
   29.0490   42.4918   37.1270 C   0  0  0  0  0  0  0  0  0  0  0  0
   29.6569   45.6958   33.8258 C   0  0  0  0  0  0  0  0  0  0  0  0
   30.7862   46.3173   34.6075 C   0  0  0  0  0  0  0  0  0  0  0  0
   30.7032   46.4500   35.9956 C   0  0  0  0  0  0  0  0  0  0  0  0
   31.8051   46.9103   36.7132 C   0  0  0  0  0  0  0  0  0  0  0  0
   32.9934   47.2236   36.0504 C   0  0  0  0  0  0  0  0  0  0  0  0
   33.0858   47.0856   34.6714 C   0  0  0  0  0  0  0  0  0  0  0  0
   31.9801   46.6527   33.9495 C   0  0  0  0  0  0  0  0  0  0  0  0
   29.2283   41.7734   29.6559 H   0  0  0  0  0  0  0  0  0  0  0  0
   26.6399   42.7353   29.7022 H   0  0  0  0  0  0  0  0  0  0  0  0
   27.0473   43.0342   31.3710 H   0  0  0  0  0  0  0  0  0  0  0  0
   25.0672   41.5493   31.7267 H   0  0  0  0  0  0  0  0  0  0  0  0
   24.4494   39.2469   32.3307 H   0  0  0  0  0  0  0  0  0  0  0  0
   25.9799   37.3580   31.8277 H   0  0  0  0  0  0  0  0  0  0  0  0
   28.1648   37.8009   30.7353 H   0  0  0  0  0  0  0  0  0  0  0  0
   28.8039   40.0118   30.1439 H   0  0  0  0  0  0  0  0  0  0  0  0
   30.2602   43.5857   28.5128 H   0  0  0  0  0  0  0  0  0  0  0  0
   28.2740   44.2803   32.1448 H   0  0  0  0  0  0  0  0  0  0  0  0
   31.1037   44.5827   32.6407 H   0  0  0  0  0  0  0  0  0  0  0  0
   28.3961   42.7080   34.2308 H   0  0  0  0  0  0  0  0  0  0  0  0
   30.3882   41.3639   35.8689 H   0  0  0  0  0  0  0  0  0  0  0  0
   29.1196   41.8175   37.9974 H   0  0  0  0  0  0  0  0  0  0  0  0
   28.0371   42.9066   37.1082 H   0  0  0  0  0  0  0  0  0  0  0  0
   29.7347   43.3281   37.2827 H   0  0  0  0  0  0  0  0  0  0  0  0
   28.7936   45.4914   34.4738 H   0  0  0  0  0  0  0  0  0  0  0  0
   29.3112   46.4238   33.0809 H   0  0  0  0  0  0  0  0  0  0  0  0
   29.8040   46.1458   36.5280 H   0  0  0  0  0  0  0  0  0  0  0  0
   31.7473   46.9893   37.7943 H   0  0  0  0  0  0  0  0  0  0  0  0
   33.8599   47.5490   36.6177 H   0  0  0  0  0  0  0  0  0  0  0  0
   34.0201   47.2797   34.1529 H   0  0  0  0  0  0  0  0  0  0  0  0
   32.0805   46.5103   32.8754 H   0  0  0  0  0  0  0  0  0  0  0  0
  1  2  2  0  0  0  0
  2  3  1  0  0  0  0
  2 12  1  0  0  0  0
  3  4  1  0  0  0  0
  3 11  1  0  0  0  0
  3 29  1  6  0  0  0
  4  5  1  0  0  0  0
  4 30  1  0  0  0  0
  4 31  1  0  0  0  0
  5  6  2  0  0  0  0
  5 10  1  0  0  0  0
  6  7  1  0  0  0  0
  6 32  1  0  0  0  0
  7  8  2  0  0  0  0
  7 33  1  0  0  0  0
  8  9  1  0  0  0  0
  8 34  1  0  0  0  0
  9 10  2  0  0  0  0
  9 35  1  0  0  0  0
 10 36  1  0  0  0  0
 11 37  1  0  0  0  0
 12 13  1  0  0  0  0
 12 38  1  0  0  0  0
 13 14  1  0  0  0  0
 13 22  1  0  0  0  0
 13 39  1  6  0  0  0
 14 15  2  0  0  0  0
 14 16  1  0  0  0  0
 16 17  1  0  0  0  0
 16 40  1  0  0  0  0
 17 18  1  0  0  0  0
 17 21  1  0  0  0  0
 17 41  1  1  0  0  0
 18 19  2  0  0  0  0
 18 20  1  0  0  0  0
 21 42  1  0  0  0  0
 21 43  1  0  0  0  0
 21 44  1  0  0  0  0
 22 23  1  0  0  0  0
 22 45  1  0  0  0  0
 22 46  1  0  0  0  0
 23 24  2  0  0  0  0
 23 28  1  0  0  0  0
 24 25  1  0  0  0  0
 24 47  1  0  0  0  0
 25 26  2  0  0  0  0
 25 48  1  0  0  0  0
 26 27  1  0  0  0  0
 26 49  1  0  0  0  0
 27 28  2  0  0  0  0
 27 50  1  0  0  0  0
 28 51  1  0  0  0  0
M  END
$$$$
