OLA
 OpenBabel04041914573D

 53 52  0  0  0  0  0  0  0  0999 V2000
   20.0316   33.2374   53.6105 C   0  0  0  0  0  0  0  0  0  0  0  0
   19.0118   33.3432   52.5091 C   0  0  0  0  0  0  0  0  0  0  0  0
   18.9861   34.4339   51.8549 O   0  0  0  0  0  0  0  0  0  0  0  0
   18.2921   32.3179   52.3707 O   0  0  0  0  0  0  0  0  0  0  0  0
   20.6147   34.5278   54.1355 C   0  0  0  0  0  0  0  0  0  0  0  0
   21.7977   34.2747   55.0537 C   0  0  0  0  0  0  0  0  0  0  0  0
   22.3234   35.6104   55.5531 C   0  0  0  0  0  0  0  0  0  0  0  0
   23.5854   35.5350   56.3995 C   0  0  0  0  0  0  0  0  0  0  0  0
   23.5324   34.5225   57.5295 C   0  0  0  0  0  0  0  0  0  0  0  0
   22.6949   35.0319   58.6903 C   0  0  0  0  0  0  0  0  0  0  0  0
   22.6202   34.0463   59.8422 C   0  0  0  0  0  0  0  0  0  0  0  0
   21.7481   34.1080   60.8249 C   0  0  0  0  0  0  0  0  0  0  0  0
   20.8005   35.2612   61.0598 C   0  0  0  0  0  0  0  0  0  0  0  0
   19.3331   34.9712   60.9178 C   0  0  0  0  0  0  0  0  0  0  0  0
   18.9389   34.5854   59.5104 C   0  0  0  0  0  0  0  0  0  0  0  0
   17.5095   34.0791   59.4904 C   0  0  0  0  0  0  0  0  0  0  0  0
   16.7138   34.4994   58.2653 C   0  0  0  0  0  0  0  0  0  0  0  0
   17.3124   35.6852   57.5403 C   0  0  0  0  0  0  0  0  0  0  0  0
   16.2982   36.4359   56.7208 C   0  0  0  0  0  0  0  0  0  0  0  0
   16.7209   37.8867   56.6397 C   0  0  0  0  0  0  0  0  0  0  0  0
   19.5163   32.7291   54.4366 H   0  0  0  0  0  0  0  0  0  0  0  0
   20.8443   32.6139   53.2161 H   0  0  0  0  0  0  0  0  0  0  0  0
   19.8241   35.0572   54.6814 H   0  0  0  0  0  0  0  0  0  0  0  0
   20.9335   35.1443   53.2884 H   0  0  0  0  0  0  0  0  0  0  0  0
   22.5906   33.7412   54.5153 H   0  0  0  0  0  0  0  0  0  0  0  0
   21.4772   33.6581   55.9006 H   0  0  0  0  0  0  0  0  0  0  0  0
   21.5427   36.0969   56.1463 H   0  0  0  0  0  0  0  0  0  0  0  0
   22.5539   36.2432   54.6890 H   0  0  0  0  0  0  0  0  0  0  0  0
   23.7568   36.5333   56.8273 H   0  0  0  0  0  0  0  0  0  0  0  0
   24.4252   35.2899   55.7423 H   0  0  0  0  0  0  0  0  0  0  0  0
   24.5595   34.3408   57.8647 H   0  0  0  0  0  0  0  0  0  0  0  0
   23.1335   33.5748   57.1581 H   0  0  0  0  0  0  0  0  0  0  0  0
   21.6758   35.2246   58.3319 H   0  0  0  0  0  0  0  0  0  0  0  0
   23.1223   35.9709   59.0582 H   0  0  0  0  0  0  0  0  0  0  0  0
   23.3439   33.2206   59.8030 H   0  0  0  0  0  0  0  0  0  0  0  0
   21.7219   33.3250   61.5879 H   0  0  0  0  0  0  0  0  0  0  0  0
   21.0502   36.0628   60.3591 H   0  0  0  0  0  0  0  0  0  0  0  0
   20.9486   35.6237   62.0805 H   0  0  0  0  0  0  0  0  0  0  0  0
   18.7864   35.8948   61.1916 H   0  0  0  0  0  0  0  0  0  0  0  0
   19.0374   34.1761   61.5990 H   0  0  0  0  0  0  0  0  0  0  0  0
   19.6019   33.8258   59.1028 H   0  0  0  0  0  0  0  0  0  0  0  0
   19.0911   35.4622   58.8931 H   0  0  0  0  0  0  0  0  0  0  0  0
   16.9776   34.4406   60.3807 H   0  0  0  0  0  0  0  0  0  0  0  0
   17.5296   32.9832   59.5318 H   0  0  0  0  0  0  0  0  0  0  0  0
   15.7007   34.7529   58.5976 H   0  0  0  0  0  0  0  0  0  0  0  0
   16.6612   33.6536   57.5737 H   0  0  0  0  0  0  0  0  0  0  0  0
   18.1297   35.3229   56.8998 H   0  0  0  0  0  0  0  0  0  0  0  0
   17.7059   36.3955   58.2749 H   0  0  0  0  0  0  0  0  0  0  0  0
   15.3134   36.3666   57.1885 H   0  0  0  0  0  0  0  0  0  0  0  0
   16.2476   35.9968   55.7256 H   0  0  0  0  0  0  0  0  0  0  0  0
   16.0022   38.4541   56.0497 H   0  0  0  0  0  0  0  0  0  0  0  0
   17.7101   37.9704   56.1782 H   0  0  0  0  0  0  0  0  0  0  0  0
   16.7729   38.3270   57.6439 H   0  0  0  0  0  0  0  0  0  0  0  0
  1  5  1  0  0  0  0
  1  2  1  0  0  0  0
  1 21  1  0  0  0  0
  1 22  1  0  0  0  0
  2  4  2  0  0  0  0
  2  3  1  0  0  0  0
  5  6  1  0  0  0  0
  5 23  1  0  0  0  0
  5 24  1  0  0  0  0
  6  7  1  0  0  0  0
  6 25  1  0  0  0  0
  6 26  1  0  0  0  0
  7  8  1  0  0  0  0
  7 27  1  0  0  0  0
  7 28  1  0  0  0  0
  8  9  1  0  0  0  0
  8 29  1  0  0  0  0
  8 30  1  0  0  0  0
  9 10  1  0  0  0  0
  9 31  1  0  0  0  0
  9 32  1  0  0  0  0
 10 11  1  0  0  0  0
 10 33  1  0  0  0  0
 10 34  1  0  0  0  0
 11 12  2  0  0  0  0
 11 35  1  0  0  0  0
 12 13  1  0  0  0  0
 12 36  1  0  0  0  0
 13 14  1  0  0  0  0
 13 37  1  0  0  0  0
 13 38  1  0  0  0  0
 14 15  1  0  0  0  0
 14 39  1  0  0  0  0
 14 40  1  0  0  0  0
 15 16  1  0  0  0  0
 15 41  1  0  0  0  0
 15 42  1  0  0  0  0
 16 17  1  0  0  0  0
 16 43  1  0  0  0  0
 16 44  1  0  0  0  0
 17 18  1  0  0  0  0
 17 45  1  0  0  0  0
 17 46  1  0  0  0  0
 18 19  1  0  0  0  0
 18 47  1  0  0  0  0
 18 48  1  0  0  0  0
 19 20  1  0  0  0  0
 19 49  1  0  0  0  0
 19 50  1  0  0  0  0
 20 51  1  0  0  0  0
 20 52  1  0  0  0  0
 20 53  1  0  0  0  0
M  END
$$$$
