OLA
 OpenBabel04041914463D

 53 52  0  0  0  0  0  0  0  0999 V2000
  -49.3217   66.7061  -12.0552 C   0  0  0  0  0  0  0  0  0  0  0  0
  -49.8691   67.6347  -12.7069 O   0  0  0  0  0  0  0  0  0  0  0  0
  -49.2211   65.4619  -12.3431 O   0  0  0  0  0  0  0  0  0  0  0  0
  -48.7062   67.0934  -10.7217 C   0  0  0  0  0  0  0  0  0  0  0  0
  -47.2745   67.5364  -10.9252 C   0  0  0  0  0  0  0  0  0  0  0  0
  -46.5977   67.9039   -9.6053 C   0  0  0  0  0  0  0  0  0  0  0  0
  -45.4116   66.9666   -9.3639 C   0  0  0  0  0  0  0  0  0  0  0  0
  -45.8226   65.7403   -8.5533 C   0  0  0  0  0  0  0  0  0  0  0  0
  -45.9167   66.0746   -7.0783 C   0  0  0  0  0  0  0  0  0  0  0  0
  -44.5625   66.2628   -6.4010 C   0  0  0  0  0  0  0  0  0  0  0  0
  -44.8264   66.6805   -4.9991 C   0  0  0  0  0  0  0  0  0  0  0  0
  -44.9005   67.9320   -4.5504 C   0  0  0  0  0  0  0  0  0  0  0  0
  -44.6661   69.1922   -5.3252 C   0  0  0  0  0  0  0  0  0  0  0  0
  -45.9131   69.6570   -6.0518 C   0  0  0  0  0  0  0  0  0  0  0  0
  -45.6419   70.9326   -6.8312 C   0  0  0  0  0  0  0  0  0  0  0  0
  -46.8800   71.3398   -7.6117 C   0  0  0  0  0  0  0  0  0  0  0  0
  -47.7678   72.3027   -6.8317 C   0  0  0  0  0  0  0  0  0  0  0  0
  -49.0015   72.6727   -7.6463 C   0  0  0  0  0  0  0  0  0  0  0  0
  -50.0031   71.5270   -7.7848 C   0  0  0  0  0  0  0  0  0  0  0  0
  -51.1834   71.9760   -8.6254 C   0  0  0  0  0  0  0  0  0  0  0  0
  -48.7294   66.2298  -10.0378 H   0  0  0  0  0  0  0  0  0  0  0  0
  -49.2829   67.9007  -10.2546 H   0  0  0  0  0  0  0  0  0  0  0  0
  -47.2383   68.4040  -11.5913 H   0  0  0  0  0  0  0  0  0  0  0  0
  -46.7193   66.7303  -11.4192 H   0  0  0  0  0  0  0  0  0  0  0  0
  -47.3141   67.8589   -8.7772 H   0  0  0  0  0  0  0  0  0  0  0  0
  -46.2361   68.9381   -9.6547 H   0  0  0  0  0  0  0  0  0  0  0  0
  -44.6178   67.5156   -8.8537 H   0  0  0  0  0  0  0  0  0  0  0  0
  -44.9928   66.6343  -10.3192 H   0  0  0  0  0  0  0  0  0  0  0  0
  -45.1001   64.9329   -8.6992 H   0  0  0  0  0  0  0  0  0  0  0  0
  -46.7999   65.3750   -8.8903 H   0  0  0  0  0  0  0  0  0  0  0  0
  -46.4817   65.2966   -6.5581 H   0  0  0  0  0  0  0  0  0  0  0  0
  -46.4971   66.9909   -6.9638 H   0  0  0  0  0  0  0  0  0  0  0  0
  -43.9465   67.0007   -6.9141 H   0  0  0  0  0  0  0  0  0  0  0  0
  -44.0004   65.3128   -6.4162 H   0  0  0  0  0  0  0  0  0  0  0  0
  -45.0695   65.8581   -4.3139 H   0  0  0  0  0  0  0  0  0  0  0  0
  -45.1858   68.0843   -3.5029 H   0  0  0  0  0  0  0  0  0  0  0  0
  -43.8483   69.0552   -6.0370 H   0  0  0  0  0  0  0  0  0  0  0  0
  -44.3526   69.9884   -4.6277 H   0  0  0  0  0  0  0  0  0  0  0  0
  -46.7379   69.8151   -5.3476 H   0  0  0  0  0  0  0  0  0  0  0  0
  -46.2296   68.8941   -6.7596 H   0  0  0  0  0  0  0  0  0  0  0  0
  -44.8180   70.7519   -7.5337 H   0  0  0  0  0  0  0  0  0  0  0  0
  -45.3341   71.7241   -6.1438 H   0  0  0  0  0  0  0  0  0  0  0  0
  -47.4546   70.4456   -7.8736 H   0  0  0  0  0  0  0  0  0  0  0  0
  -46.5679   71.8154   -8.5476 H   0  0  0  0  0  0  0  0  0  0  0  0
  -47.2011   73.2174   -6.6121 H   0  0  0  0  0  0  0  0  0  0  0  0
  -48.0660   71.8637   -5.8737 H   0  0  0  0  0  0  0  0  0  0  0  0
  -48.6849   72.9926   -8.6463 H   0  0  0  0  0  0  0  0  0  0  0  0
  -49.4994   73.5220   -7.1680 H   0  0  0  0  0  0  0  0  0  0  0  0
  -50.3561   71.2118   -6.7965 H   0  0  0  0  0  0  0  0  0  0  0  0
  -49.5408   70.6593   -8.2656 H   0  0  0  0  0  0  0  0  0  0  0  0
  -51.9103   71.1667   -8.7346 H   0  0  0  0  0  0  0  0  0  0  0  0
  -50.8494   72.2774   -9.6234 H   0  0  0  0  0  0  0  0  0  0  0  0
  -51.6823   72.8298   -8.1576 H   0  0  0  0  0  0  0  0  0  0  0  0
  1  2  2  0  0  0  0
  1  3  1  0  0  0  0
  1  4  1  0  0  0  0
  4  5  1  0  0  0  0
  4 21  1  0  0  0  0
  4 22  1  0  0  0  0
  5  6  1  0  0  0  0
  5 23  1  0  0  0  0
  5 24  1  0  0  0  0
  6  7  1  0  0  0  0
  6 25  1  0  0  0  0
  6 26  1  0  0  0  0
  7  8  1  0  0  0  0
  7 27  1  0  0  0  0
  7 28  1  0  0  0  0
  8  9  1  0  0  0  0
  8 29  1  0  0  0  0
  8 30  1  0  0  0  0
  9 10  1  0  0  0  0
  9 31  1  0  0  0  0
  9 32  1  0  0  0  0
 10 11  1  0  0  0  0
 10 33  1  0  0  0  0
 10 34  1  0  0  0  0
 11 12  2  0  0  0  0
 11 35  1  0  0  0  0
 12 13  1  0  0  0  0
 12 36  1  0  0  0  0
 13 14  1  0  0  0  0
 13 37  1  0  0  0  0
 13 38  1  0  0  0  0
 14 15  1  0  0  0  0
 14 39  1  0  0  0  0
 14 40  1  0  0  0  0
 15 16  1  0  0  0  0
 15 41  1  0  0  0  0
 15 42  1  0  0  0  0
 16 17  1  0  0  0  0
 16 43  1  0  0  0  0
 16 44  1  0  0  0  0
 17 18  1  0  0  0  0
 17 45  1  0  0  0  0
 17 46  1  0  0  0  0
 18 19  1  0  0  0  0
 18 47  1  0  0  0  0
 18 48  1  0  0  0  0
 19 20  1  0  0  0  0
 19 49  1  0  0  0  0
 19 50  1  0  0  0  0
 20 51  1  0  0  0  0
 20 52  1  0  0  0  0
 20 53  1  0  0  0  0
M  END
$$$$
