OLA
 OpenBabel04041917223D

 53 52  0  0  0  0  0  0  0  0999 V2000
   17.0515   31.1939    6.3983 C   0  0  0  0  0  0  0  0  0  0  0  0
   17.7307   32.0824    6.9915 O   0  0  0  0  0  0  0  0  0  0  0  0
   17.0877   30.8297    5.1909 O   0  0  0  0  0  0  0  0  0  0  0  0
   16.0297   30.4382    7.2612 C   0  0  0  0  0  0  0  0  0  0  0  0
   15.4207   31.1478    8.4866 C   0  0  0  0  0  0  0  0  0  0  0  0
   13.8838   30.9934    8.5671 C   0  0  0  0  0  0  0  0  0  0  0  0
   13.3962   30.2607    9.8254 C   0  0  0  0  0  0  0  0  0  0  0  0
   11.9885   29.6585    9.6736 C   0  0  0  0  0  0  0  0  0  0  0  0
   10.8263   30.6210    9.9499 C   0  0  0  0  0  0  0  0  0  0  0  0
   10.3984   31.4376    8.7256 C   0  0  0  0  0  0  0  0  0  0  0  0
    8.9320   31.3000    8.3886 C   0  0  0  0  0  0  0  0  0  0  0  0
    8.3681   31.7904    7.2739 C   0  0  0  0  0  0  0  0  0  0  0  0
    9.0939   32.5691    6.2079 C   0  0  0  0  0  0  0  0  0  0  0  0
    8.3053   33.8007    5.7618 C   0  0  0  0  0  0  0  0  0  0  0  0
    8.8850   34.4610    4.5023 C   0  0  0  0  0  0  0  0  0  0  0  0
   10.2093   35.1870    4.7397 C   0  0  0  0  0  0  0  0  0  0  0  0
   11.4369   34.3375    4.3994 C   0  0  0  0  0  0  0  0  0  0  0  0
   12.7053   34.9337    5.0226 C   0  0  0  0  0  0  0  0  0  0  0  0
   13.4353   33.9242    5.9024 C   0  0  0  0  0  0  0  0  0  0  0  0
   14.4006   33.0862    5.0891 C   0  0  0  0  0  0  0  0  0  0  0  0
   16.5379   29.5259    7.6026 H   0  0  0  0  0  0  0  0  0  0  0  0
   15.2354   30.1058    6.5844 H   0  0  0  0  0  0  0  0  0  0  0  0
   15.6579   32.2177    8.4656 H   0  0  0  0  0  0  0  0  0  0  0  0
   15.8963   30.7520    9.3939 H   0  0  0  0  0  0  0  0  0  0  0  0
   13.5059   30.4756    7.6810 H   0  0  0  0  0  0  0  0  0  0  0  0
   13.4312   31.9920    8.5529 H   0  0  0  0  0  0  0  0  0  0  0  0
   13.4298   30.9365   10.6896 H   0  0  0  0  0  0  0  0  0  0  0  0
   14.0818   29.4353   10.0473 H   0  0  0  0  0  0  0  0  0  0  0  0
   11.9069   28.8414   10.4024 H   0  0  0  0  0  0  0  0  0  0  0  0
   11.8742   29.1893    8.6893 H   0  0  0  0  0  0  0  0  0  0  0  0
   11.0934   31.3043   10.7649 H   0  0  0  0  0  0  0  0  0  0  0  0
    9.9854   30.0235   10.3250 H   0  0  0  0  0  0  0  0  0  0  0  0
   10.9895   31.1440    7.8506 H   0  0  0  0  0  0  0  0  0  0  0  0
   10.6071   32.4951    8.9261 H   0  0  0  0  0  0  0  0  0  0  0  0
    8.3009   30.7366    9.0704 H   0  0  0  0  0  0  0  0  0  0  0  0
    7.3121   31.5876    7.0926 H   0  0  0  0  0  0  0  0  0  0  0  0
    9.2573   31.9038    5.3518 H   0  0  0  0  0  0  0  0  0  0  0  0
   10.0732   32.8916    6.5681 H   0  0  0  0  0  0  0  0  0  0  0  0
    8.2686   34.5330    6.5820 H   0  0  0  0  0  0  0  0  0  0  0  0
    7.2692   33.5185    5.5518 H   0  0  0  0  0  0  0  0  0  0  0  0
    8.1497   35.2034    4.1593 H   0  0  0  0  0  0  0  0  0  0  0  0
    8.9811   33.7214    3.6960 H   0  0  0  0  0  0  0  0  0  0  0  0
   10.2542   35.5384    5.7775 H   0  0  0  0  0  0  0  0  0  0  0  0
   10.2406   36.0828    4.1063 H   0  0  0  0  0  0  0  0  0  0  0  0
   11.5527   34.2969    3.3092 H   0  0  0  0  0  0  0  0  0  0  0  0
   11.2938   33.3012    4.7193 H   0  0  0  0  0  0  0  0  0  0  0  0
   12.4649   35.8101    5.6337 H   0  0  0  0  0  0  0  0  0  0  0  0
   13.3712   35.2916    4.2267 H   0  0  0  0  0  0  0  0  0  0  0  0
   12.7257   33.2703    6.4261 H   0  0  0  0  0  0  0  0  0  0  0  0
   13.9998   34.4526    6.6790 H   0  0  0  0  0  0  0  0  0  0  0  0
   14.8698   32.3598    5.7425 H   0  0  0  0  0  0  0  0  0  0  0  0
   15.1870   33.7100    4.6515 H   0  0  0  0  0  0  0  0  0  0  0  0
   13.8957   32.5421    4.2842 H   0  0  0  0  0  0  0  0  0  0  0  0
  1  2  2  0  0  0  0
  1  3  1  0  0  0  0
  1  4  1  0  0  0  0
  4  5  1  0  0  0  0
  4 21  1  0  0  0  0
  4 22  1  0  0  0  0
  5  6  1  0  0  0  0
  5 23  1  0  0  0  0
  5 24  1  0  0  0  0
  6  7  1  0  0  0  0
  6 25  1  0  0  0  0
  6 26  1  0  0  0  0
  7  8  1  0  0  0  0
  7 27  1  0  0  0  0
  7 28  1  0  0  0  0
  8  9  1  0  0  0  0
  8 29  1  0  0  0  0
  8 30  1  0  0  0  0
  9 10  1  0  0  0  0
  9 31  1  0  0  0  0
  9 32  1  0  0  0  0
 10 11  1  0  0  0  0
 10 33  1  0  0  0  0
 10 34  1  0  0  0  0
 11 12  2  0  0  0  0
 11 35  1  0  0  0  0
 12 13  1  0  0  0  0
 12 36  1  0  0  0  0
 13 14  1  0  0  0  0
 13 37  1  0  0  0  0
 13 38  1  0  0  0  0
 14 15  1  0  0  0  0
 14 39  1  0  0  0  0
 14 40  1  0  0  0  0
 15 16  1  0  0  0  0
 15 41  1  0  0  0  0
 15 42  1  0  0  0  0
 16 17  1  0  0  0  0
 16 43  1  0  0  0  0
 16 44  1  0  0  0  0
 17 18  1  0  0  0  0
 17 45  1  0  0  0  0
 17 46  1  0  0  0  0
 18 19  1  0  0  0  0
 18 47  1  0  0  0  0
 18 48  1  0  0  0  0
 19 20  1  0  0  0  0
 19 49  1  0  0  0  0
 19 50  1  0  0  0  0
 20 51  1  0  0  0  0
 20 52  1  0  0  0  0
 20 53  1  0  0  0  0
M  END
$$$$
