OMD
 OpenBabel04041913563D

 19 19  0  0  0  0  0  0  0  0999 V2000
   13.5824   37.5708   36.1515 C   0  0  0  0  0  0  0  0  0  0  0  0
   13.0056   36.1936   35.8045 C   0  0  0  0  0  0  0  0  0  0  0  0
   11.9552   36.0519   34.7229 C   0  0  0  0  0  0  0  0  0  0  0  0
   12.0532   36.8150   33.5423 C   0  0  0  0  0  0  0  0  0  0  0  0
   11.0694   36.7437   32.5627 C   0  0  0  0  0  0  0  0  0  0  0  0
   11.1462   37.5851   31.4932 O   0  0  0  0  0  0  0  0  0  0  0  0
   10.0041   35.8692   32.6776 C   0  0  0  0  0  0  0  0  0  0  0  0
    9.9228   35.0493   33.7979 C   0  0  0  0  0  0  0  0  0  0  0  0
   10.8884   35.1377   34.8034 C   0  0  0  0  0  0  0  0  0  0  0  0
   10.7115   34.2693   35.8439 O   0  0  0  0  0  0  0  0  0  0  0  0
   14.5066   37.5252   37.0199 O   0  0  0  0  0  0  0  0  0  0  0  0
   13.0930   38.5883   35.5907 O   0  0  0  0  0  0  0  0  0  0  0  0
   12.5944   35.8520   36.7616 H   0  0  0  0  0  0  0  0  0  0  0  0
   13.8377   35.5225   35.5554 H   0  0  0  0  0  0  0  0  0  0  0  0
   12.8699   37.5249   33.4183 H   0  0  0  0  0  0  0  0  0  0  0  0
   10.2830   38.0286   31.4574 H   0  0  0  0  0  0  0  0  0  0  0  0
    9.2467   35.8076   31.9024 H   0  0  0  0  0  0  0  0  0  0  0  0
    9.1049   34.3436   33.9009 H   0  0  0  0  0  0  0  0  0  0  0  0
   11.4707   34.3634   36.4463 H   0  0  0  0  0  0  0  0  0  0  0  0
  1 12  2  0  0  0  0
  1 11  1  0  0  0  0
  1  2  1  0  0  0  0
  2  3  1  0  0  0  0
  2 13  1  0  0  0  0
  2 14  1  0  0  0  0
  3  9  2  0  0  0  0
  3  4  1  0  0  0  0
  4  5  2  0  0  0  0
  4 15  1  0  0  0  0
  5  7  1  0  0  0  0
  5  6  1  0  0  0  0
  6 16  1  0  0  0  0
  7  8  2  0  0  0  0
  7 17  1  0  0  0  0
  8  9  1  0  0  0  0
  8 18  1  0  0  0  0
  9 10  1  0  0  0  0
 10 19  1  0  0  0  0
M  END
$$$$
