OPB
 OpenBabel04041916323D

 44 46  0  0  1  0  0  0  0  0999 V2000
   11.9723   22.8019   -8.6684 C   0  0  0  0  0  0  0  0  0  0  0  0
   10.6612   22.6746   -8.1304 C   0  0  0  0  0  0  0  0  0  0  0  0
   10.1155   23.6239   -7.2391 C   0  0  0  0  0  0  0  0  0  0  0  0
   10.9756   24.6936   -6.8937 C   0  0  0  0  0  0  0  0  0  0  0  0
   12.2729   24.8398   -7.4576 C   0  0  0  0  0  0  0  0  0  0  0  0
   12.7752   23.8944   -8.3488 C   0  0  0  0  0  0  0  0  0  0  0  0
    6.9575   21.6218  -10.7450 C   0  0  0  0  0  0  0  0  0  0  0  0
    7.0740   22.6621  -11.6566 C   0  0  0  0  0  0  0  0  0  0  0  0
    7.3335   23.9597  -11.1964 C   0  0  0  0  0  0  0  0  0  0  0  0
    7.5045   24.2049   -9.8006 C   0  0  0  0  0  0  0  0  0  0  0  0
    7.4074   23.1565   -8.8621 C   0  0  0  0  0  0  0  0  0  0  0  0
    7.1042   21.8795   -9.3666 C   0  0  0  0  0  0  0  0  0  0  0  0
    4.9170   18.6314   -3.8159 C   0  0  0  0  0  0  0  0  0  0  0  0
    5.9170   19.7086   -4.1320 C   0  0  0  0  0  0  0  0  0  0  0  0
    5.5379   21.1866   -3.8948 C   0  0  0  0  0  0  0  0  0  0  0  0
    6.8318   21.9390   -4.3099 C   0  0  0  0  0  0  0  0  0  0  0  0
    8.7711   23.5250   -6.6968 N   0  0  0  0  0  0  0  0  0  0  0  0
    8.4700   23.5298   -5.2939 C   0  0  0  0  0  0  0  0  0  0  0  0
    6.9420   23.2366   -5.1116 C   0  0  1  0  0  0  0  0  0  0  0  0
    6.4467   23.1269   -6.5338 C   0  0  0  0  0  0  0  0  0  0  0  0
    7.5351   23.3138   -7.4320 N   0  0  0  0  0  0  0  0  0  0  0  0
    9.2424   23.6252   -4.3714 O   0  0  0  0  0  0  0  0  0  0  0  0
    5.2590   22.9720   -6.8395 O   0  0  0  0  0  0  0  0  0  0  0  0
    6.9365   22.4020  -13.0069 O   0  0  0  0  0  0  0  0  0  0  0  0
   12.3716   22.0456   -9.3493 H   0  0  0  0  0  0  0  0  0  0  0  0
   10.1067   21.7807   -8.3999 H   0  0  0  0  0  0  0  0  0  0  0  0
   10.6419   25.4762   -6.2142 H   0  0  0  0  0  0  0  0  0  0  0  0
   12.8995   25.7018   -7.2094 H   0  0  0  0  0  0  0  0  0  0  0  0
   13.7700   24.0016   -8.7834 H   0  0  0  0  0  0  0  0  0  0  0  0
    6.7615   20.6132  -11.0825 H   0  0  0  0  0  0  0  0  0  0  0  0
    7.4074   24.7677  -11.9255 H   0  0  0  0  0  0  0  0  0  0  0  0
    7.6778   25.2341   -9.4854 H   0  0  0  0  0  0  0  0  0  0  0  0
    7.0063   21.0391   -8.6812 H   0  0  0  0  0  0  0  0  0  0  0  0
    5.3637   17.6622   -4.0778 H   0  0  0  0  0  0  0  0  0  0  0  0
    4.0117   18.7577   -4.4108 H   0  0  0  0  0  0  0  0  0  0  0  0
    4.6772   18.6181   -2.7524 H   0  0  0  0  0  0  0  0  0  0  0  0
    6.1642   19.6044   -5.1950 H   0  0  0  0  0  0  0  0  0  0  0  0
    6.8294   19.4918   -3.5576 H   0  0  0  0  0  0  0  0  0  0  0  0
    5.3140   21.3391   -2.8250 H   0  0  0  0  0  0  0  0  0  0  0  0
    4.6448   21.4729   -4.4566 H   0  0  0  0  0  0  0  0  0  0  0  0
    7.4108   21.2241   -4.9090 H   0  0  0  0  0  0  0  0  0  0  0  0
    7.3844   22.0640   -3.3680 H   0  0  0  0  0  0  0  0  0  0  0  0
    6.4517   24.0614   -4.5909 H   0  0  0  0  0  0  0  0  0  0  0  0
    6.7642   21.4558  -13.1234 H   0  0  0  0  0  0  0  0  0  0  0  0
  1  2  2  0  0  0  0
  1  6  1  0  0  0  0
  1 25  1  0  0  0  0
  2  3  1  0  0  0  0
  2 26  1  0  0  0  0
  3  4  2  0  0  0  0
  3 17  1  0  0  0  0
  4  5  1  0  0  0  0
  4 27  1  0  0  0  0
  5  6  2  0  0  0  0
  5 28  1  0  0  0  0
  6 29  1  0  0  0  0
  7  8  2  0  0  0  0
  7 12  1  0  0  0  0
  7 30  1  0  0  0  0
  8  9  1  0  0  0  0
  8 24  1  0  0  0  0
  9 10  2  0  0  0  0
  9 31  1  0  0  0  0
 10 11  1  0  0  0  0
 10 32  1  0  0  0  0
 11 12  2  0  0  0  0
 11 21  1  0  0  0  0
 12 33  1  0  0  0  0
 13 14  1  0  0  0  0
 13 34  1  0  0  0  0
 13 35  1  0  0  0  0
 13 36  1  0  0  0  0
 14 15  1  0  0  0  0
 14 37  1  0  0  0  0
 14 38  1  0  0  0  0
 15 16  1  0  0  0  0
 15 39  1  0  0  0  0
 15 40  1  0  0  0  0
 16 19  1  0  0  0  0
 16 41  1  0  0  0  0
 16 42  1  0  0  0  0
 17 18  1  0  0  0  0
 17 21  1  0  0  0  0
 18 19  1  0  0  0  0
 18 22  2  0  0  0  0
 19 20  1  0  0  0  0
 19 43  1  1  0  0  0
 20 21  1  0  0  0  0
 20 23  2  0  0  0  0
 24 44  1  0  0  0  0
M  END
$$$$
