OTA
 OpenBabel04041914113D

 27 28  0  0  0  0  0  0  0  0999 V2000
   45.3378   10.3649   -0.2832 N   0  3  0  0  0  0  0  0  0  0  0  0
   45.7634   10.6982    1.1320 C   0  0  0  0  0  0  0  0  0  0  0  0
   45.3279   12.0626    1.5053 C   0  0  0  0  0  0  0  0  0  0  0  0
   44.5054   12.8646    0.7399 C   0  0  0  0  0  0  0  0  0  0  0  0
   43.9273   12.3962   -0.5575 C   0  0  0  0  0  0  0  0  0  0  0  0
   43.9593   10.8722   -0.6325 C   0  0  0  0  0  0  0  0  0  0  0  0
   45.7542   12.7951    2.9799 S   0  0  0  0  0  0  0  0  0  0  0  0
   44.8799   14.2091    2.6056 C   0  0  0  0  0  0  0  0  0  0  0  0
   44.3060   14.1433    1.3505 C   0  0  0  0  0  0  0  0  0  0  0  0
   43.5691   15.2617    0.7073 C   0  0  0  0  0  0  0  0  0  0  0  0
   43.3291   16.2840    1.4055 O   0  0  0  0  0  0  0  0  0  0  0  0
   43.2520   15.0862   -0.5149 O   0  0  0  0  0  0  0  0  0  0  0  0
   44.7908   15.2749    3.4686 N   0  0  0  0  0  0  0  0  0  0  0  0
   45.4195   15.4641    4.6870 C   0  0  0  0  0  0  0  0  0  0  0  0
   45.1691   16.8380    5.3936 C   0  0  0  0  0  0  0  0  0  0  0  0
   46.1337   17.3639    6.0305 O   0  0  0  0  0  0  0  0  0  0  0  0
   44.0035   17.3318    5.2147 O   0  0  0  0  0  0  0  0  0  0  0  0
   46.1557   14.6795    5.2836 O   0  0  0  0  0  0  0  0  0  0  0  0
   45.3999    9.3560   -0.4352 H   0  0  0  0  0  0  0  0  0  0  0  0
   46.8529   10.5935    1.1430 H   0  0  0  0  0  0  0  0  0  0  0  0
   45.3169    9.9347    1.7760 H   0  0  0  0  0  0  0  0  0  0  0  0
   44.5041   12.8247   -1.3862 H   0  0  0  0  0  0  0  0  0  0  0  0
   42.8842   12.7112   -0.6598 H   0  0  0  0  0  0  0  0  0  0  0  0
   43.2597   10.4066    0.0709 H   0  0  0  0  0  0  0  0  0  0  0  0
   43.7358   10.5237   -1.6452 H   0  0  0  0  0  0  0  0  0  0  0  0
   44.2037   16.0593    3.1492 H   0  0  0  0  0  0  0  0  0  0  0  0
   46.0046   10.8275   -0.9123 H   0  0  0  0  0  0  0  0  0  0  0  0
  1  6  1  0  0  0  0
  1  2  1  0  0  0  0
  1 19  1  0  0  0  0
  1 27  1  0  0  0  0
  2  3  1  0  0  0  0
  2 20  1  0  0  0  0
  2 21  1  0  0  0  0
  3  7  1  0  0  0  0
  3  4  2  0  0  0  0
  4  9  1  0  0  0  0
  4  5  1  0  0  0  0
  5  6  1  0  0  0  0
  5 22  1  0  0  0  0
  5 23  1  0  0  0  0
  6 24  1  0  0  0  0
  6 25  1  0  0  0  0
  7  8  1  0  0  0  0
  8  9  2  0  0  0  0
  8 13  1  0  0  0  0
  9 10  1  0  0  0  0
 10 12  2  0  0  0  0
 10 11  1  0  0  0  0
 13 14  1  0  0  0  0
 13 26  1  0  0  0  0
 14 18  2  0  0  0  0
 14 15  1  0  0  0  0
 15 17  2  0  0  0  0
 15 16  1  0  0  0  0
M  CHG  1   1   1
M  END
$$$$
