OXN
 OpenBabel04041915063D

 61 61  0  0  0  0  0  0  0  0999 V2000
   29.4274   28.8422   15.9617 C   0  0  0  0  0  0  0  0  0  0  0  0
   30.3216   28.7638   17.2421 C   0  0  0  0  0  0  0  0  0  0  0  0
   29.3565   28.4249   18.4127 C   0  0  0  0  0  0  0  0  0  0  0  0
   31.3525   27.6294   17.1638 C   0  0  0  0  0  0  0  0  0  0  0  0
   31.0366   30.0672   17.6178 C   0  0  0  0  0  0  0  0  0  0  0  0
   29.8778   29.2845   14.5243 C   0  0  0  0  0  0  0  0  0  0  0  0
   30.4471   30.7159   14.4633 C   0  0  0  0  0  0  0  0  0  0  0  0
   30.8099   28.2436   13.8591 C   0  0  0  0  0  0  0  0  0  0  0  0
   28.5690   29.2279   13.6639 C   0  0  0  0  0  0  0  0  0  0  0  0
   29.6195   31.8285   14.7049 C   0  0  0  0  0  0  0  0  0  0  0  0
   30.1180   33.1387   14.6107 C   0  0  0  0  0  0  0  0  0  0  0  0
   31.4516   33.3679   14.3117 C   0  0  0  0  0  0  0  0  0  0  0  0
   32.2829   32.2855   14.0454 C   0  0  0  0  0  0  0  0  0  0  0  0
   31.7875   30.9781   14.1243 C   0  0  0  0  0  0  0  0  0  0  0  0
   31.9823   34.6201   14.1644 O   0  0  0  0  0  0  0  0  0  0  0  0
   31.7592   35.4898   15.2896 C   0  0  0  0  0  0  0  0  0  0  0  0
   31.5488   36.9226   14.7927 C   0  0  0  0  0  0  0  0  0  0  0  0
   32.7858   37.6445   14.7990 O   0  0  0  0  0  0  0  0  0  0  0  0
   32.6546   38.9202   14.1615 C   0  0  0  0  0  0  0  0  0  0  0  0
   33.6146   39.9336   14.7878 C   0  0  0  0  0  0  0  0  0  0  0  0
   32.9358   40.6293   15.8464 O   0  0  0  0  0  0  0  0  0  0  0  0
   33.5398   41.9008   16.1129 C   0  0  0  0  0  0  0  0  0  0  0  0
   32.9062   42.5446   17.3425 C   0  0  0  0  0  0  0  0  0  0  0  0
   33.5840   42.0900   18.5192 O   0  0  0  0  0  0  0  0  0  0  0  0
   33.2847   42.9002   19.6471 C   0  0  0  0  0  0  0  0  0  0  0  0
   29.0022   27.8326   15.8427 H   0  0  0  0  0  0  0  0  0  0  0  0
   28.5695   29.4769   16.2283 H   0  0  0  0  0  0  0  0  0  0  0  0
   29.8833   28.3758   19.3722 H   0  0  0  0  0  0  0  0  0  0  0  0
   28.8646   27.4583   18.2526 H   0  0  0  0  0  0  0  0  0  0  0  0
   28.5704   29.1837   18.5086 H   0  0  0  0  0  0  0  0  0  0  0  0
   32.1130   27.8197   16.4049 H   0  0  0  0  0  0  0  0  0  0  0  0
   30.8708   26.6706   16.9429 H   0  0  0  0  0  0  0  0  0  0  0  0
   31.8803   27.5143   18.1191 H   0  0  0  0  0  0  0  0  0  0  0  0
   31.7768   30.3673   16.8783 H   0  0  0  0  0  0  0  0  0  0  0  0
   31.5862   29.9397   18.5666 H   0  0  0  0  0  0  0  0  0  0  0  0
   30.3300   30.8883   17.7740 H   0  0  0  0  0  0  0  0  0  0  0  0
   31.0069   28.5105   12.8085 H   0  0  0  0  0  0  0  0  0  0  0  0
   30.3558   27.2456   13.8526 H   0  0  0  0  0  0  0  0  0  0  0  0
   31.7766   28.1609   14.3523 H   0  0  0  0  0  0  0  0  0  0  0  0
   27.7756   29.8698   14.0654 H   0  0  0  0  0  0  0  0  0  0  0  0
   28.1567   28.2104   13.6490 H   0  0  0  0  0  0  0  0  0  0  0  0
   28.7477   29.5318   12.6278 H   0  0  0  0  0  0  0  0  0  0  0  0
   28.5710   31.7037   14.9515 H   0  0  0  0  0  0  0  0  0  0  0  0
   29.4249   33.9664   14.7488 H   0  0  0  0  0  0  0  0  0  0  0  0
   33.3213   32.4553   13.7756 H   0  0  0  0  0  0  0  0  0  0  0  0
   32.4874   30.1737   13.9128 H   0  0  0  0  0  0  0  0  0  0  0  0
   32.6375   35.4262   15.9416 H   0  0  0  0  0  0  0  0  0  0  0  0
   30.8787   35.1965   15.8698 H   0  0  0  0  0  0  0  0  0  0  0  0
   30.8720   37.4414   15.4810 H   0  0  0  0  0  0  0  0  0  0  0  0
   31.1183   36.9276   13.7845 H   0  0  0  0  0  0  0  0  0  0  0  0
   31.6240   39.2902   14.2308 H   0  0  0  0  0  0  0  0  0  0  0  0
   32.9097   38.7759   13.1057 H   0  0  0  0  0  0  0  0  0  0  0  0
   33.9194   40.6517   14.0210 H   0  0  0  0  0  0  0  0  0  0  0  0
   34.5016   39.4435   15.2070 H   0  0  0  0  0  0  0  0  0  0  0  0
   33.3566   42.5417   15.2428 H   0  0  0  0  0  0  0  0  0  0  0  0
   34.6187   41.7749   16.2559 H   0  0  0  0  0  0  0  0  0  0  0  0
   31.8409   42.2855   17.4257 H   0  0  0  0  0  0  0  0  0  0  0  0
   33.0120   43.6326   17.2694 H   0  0  0  0  0  0  0  0  0  0  0  0
   33.8069   42.4897   20.5153 H   0  0  0  0  0  0  0  0  0  0  0  0
   32.2094   42.9056   19.8489 H   0  0  0  0  0  0  0  0  0  0  0  0
   33.6424   43.9213   19.4814 H   0  0  0  0  0  0  0  0  0  0  0  0
  1  6  1  0  0  0  0
  1  2  1  0  0  0  0
  1 26  1  0  0  0  0
  1 27  1  0  0  0  0
  2  5  1  0  0  0  0
  2  4  1  0  0  0  0
  2  3  1  0  0  0  0
  3 28  1  0  0  0  0
  3 29  1  0  0  0  0
  3 30  1  0  0  0  0
  4 31  1  0  0  0  0
  4 32  1  0  0  0  0
  4 33  1  0  0  0  0
  5 34  1  0  0  0  0
  5 35  1  0  0  0  0
  5 36  1  0  0  0  0
  6  9  1  0  0  0  0
  6  8  1  0  0  0  0
  6  7  1  0  0  0  0
  7 14  2  0  0  0  0
  7 10  1  0  0  0  0
  8 37  1  0  0  0  0
  8 38  1  0  0  0  0
  8 39  1  0  0  0  0
  9 40  1  0  0  0  0
  9 41  1  0  0  0  0
  9 42  1  0  0  0  0
 10 11  2  0  0  0  0
 10 43  1  0  0  0  0
 11 12  1  0  0  0  0
 11 44  1  0  0  0  0
 12 15  1  0  0  0  0
 12 13  2  0  0  0  0
 13 14  1  0  0  0  0
 13 45  1  0  0  0  0
 14 46  1  0  0  0  0
 15 16  1  0  0  0  0
 16 17  1  0  0  0  0
 16 47  1  0  0  0  0
 16 48  1  0  0  0  0
 17 18  1  0  0  0  0
 17 49  1  0  0  0  0
 17 50  1  0  0  0  0
 18 19  1  0  0  0  0
 19 20  1  0  0  0  0
 19 51  1  0  0  0  0
 19 52  1  0  0  0  0
 20 21  1  0  0  0  0
 20 53  1  0  0  0  0
 20 54  1  0  0  0  0
 21 22  1  0  0  0  0
 22 23  1  0  0  0  0
 22 55  1  0  0  0  0
 22 56  1  0  0  0  0
 23 24  1  0  0  0  0
 23 57  1  0  0  0  0
 23 58  1  0  0  0  0
 24 25  1  0  0  0  0
 25 59  1  0  0  0  0
 25 60  1  0  0  0  0
 25 61  1  0  0  0  0
M  END
$$$$
