OXZ
 OpenBabel04041917243D

 21 21  0  0  1  0  0  0  0  0999 V2000
   -3.0958    9.5719    8.7986 C   0  0  0  0  0  0  0  0  0  0  0  0
   -2.0624   10.6859    9.0075 C   0  0  2  0  0  0  0  0  0  0  0  0
   -0.9964   10.7687    7.9062 C   0  0  2  0  0  0  0  0  0  0  0  0
   -0.0725   11.9563    8.2272 C   0  0  1  0  0  0  0  0  0  0  0  0
    0.4642   11.8226    9.6589 C   0  0  0  0  0  0  0  0  0  0  0  0
   -2.5610    8.2545    8.8531 O   0  0  0  0  0  0  0  0  0  0  0  0
   -1.3650   10.4714   10.2496 O   0  0  0  0  0  0  0  0  0  0  0  0
   -1.5546   10.9561    6.5984 O   0  0  0  0  0  0  0  0  0  0  0  0
    1.0026   11.9939    7.2844 O   0  0  0  0  0  0  0  0  0  0  0  0
   -0.6508   11.6986   10.6087 N   0  3  0  0  0  0  0  0  0  0  0  0
   -3.6049    9.6935    7.8365 H   0  0  0  0  0  0  0  0  0  0  0  0
   -3.8551    9.6329    9.5837 H   0  0  0  0  0  0  0  0  0  0  0  0
   -2.6230   11.6304    9.0566 H   0  0  0  0  0  0  0  0  0  0  0  0
   -0.3850    9.8589    7.8726 H   0  0  0  0  0  0  0  0  0  0  0  0
   -0.6213   12.9005    8.1180 H   0  0  0  0  0  0  0  0  0  0  0  0
    1.0616   12.7065    9.9094 H   0  0  0  0  0  0  0  0  0  0  0  0
    1.1412   10.9627    9.7374 H   0  0  0  0  0  0  0  0  0  0  0  0
   -1.7383    8.2049    8.3400 H   0  0  0  0  0  0  0  0  0  0  0  0
   -1.8910   10.0940    6.2928 H   0  0  0  0  0  0  0  0  0  0  0  0
    0.5677   12.0475    6.4108 H   0  0  0  0  0  0  0  0  0  0  0  0
   -0.2755   11.4498   11.5276 H   0  0  0  0  0  0  0  0  0  0  0  0
  1  2  1  0  0  0  0
  1  6  1  0  0  0  0
  1 11  1  0  0  0  0
  1 12  1  0  0  0  0
  2  3  1  0  0  0  0
  2  7  1  0  0  0  0
  2 13  1  1  0  0  0
  3  4  1  0  0  0  0
  3  8  1  0  0  0  0
  3 14  1  1  0  0  0
  4  5  1  0  0  0  0
  4  9  1  0  0  0  0
  4 15  1  6  0  0  0
  5 10  1  0  0  0  0
  5 16  1  0  0  0  0
  5 17  1  0  0  0  0
  6 18  1  0  0  0  0
  7 10  1  0  0  0  0
  8 19  1  0  0  0  0
  9 20  1  0  0  0  0
 10 21  1  0  0  0  0
M  CHG  1  10   1
M  END
$$$$
