P34
 OpenBabel04041917403D

 40 42  0  0  0  0  0  0  0  0999 V2000
   31.9723    7.4743   18.1640 C   0  0  0  0  0  0  0  0  0  0  0  0
   32.8073    8.7127   18.0981 N   0  3  0  0  0  0  0  0  0  0  0  0
   33.0178    9.4232   19.3875 C   0  0  0  0  0  0  0  0  0  0  0  0
   32.3888    9.6801   17.0109 C   0  0  0  0  0  0  0  0  0  0  0  0
   30.9195   10.0722   16.7498 C   0  0  0  0  0  0  0  0  0  0  0  0
   30.7257   10.7327   15.7153 O   0  0  0  0  0  0  0  0  0  0  0  0
   29.7961    9.5479   17.3213 N   0  0  0  0  0  0  0  0  0  0  0  0
   29.2285    9.3381   18.6099 C   0  0  0  0  0  0  0  0  0  0  0  0
   28.0818    8.5067   18.6422 C   0  0  0  0  0  0  0  0  0  0  0  0
   27.3910    8.1533   19.8289 C   0  0  0  0  0  0  0  0  0  0  0  0
   26.1826    7.2919   19.8740 C   0  0  0  0  0  0  0  0  0  0  0  0
   25.5810    6.7139   18.7358 C   0  0  0  0  0  0  0  0  0  0  0  0
   24.4394    5.9170   18.8290 C   0  0  0  0  0  0  0  0  0  0  0  0
   23.8448    5.6668   20.0654 C   0  0  0  0  0  0  0  0  0  0  0  0
   24.4148    6.2259   21.2140 C   0  0  0  0  0  0  0  0  0  0  0  0
   25.5652    7.0161   21.1204 C   0  0  0  0  0  0  0  0  0  0  0  0
   26.1427    7.5775   22.3599 C   0  0  0  0  0  0  0  0  0  0  0  0
   25.6501    7.3555   23.4672 O   0  0  0  0  0  0  0  0  0  0  0  0
   27.2679    8.3674   22.2446 N   0  3  0  0  0  0  0  0  0  0  0  0
   27.8977    8.6709   21.0219 C   0  0  0  0  0  0  0  0  0  0  0  0
   29.0129    9.5148   21.0265 C   0  0  0  0  0  0  0  0  0  0  0  0
   29.6455    9.8834   19.8205 C   0  0  0  0  0  0  0  0  0  0  0  0
   32.3431    6.8401   18.9692 H   0  0  0  0  0  0  0  0  0  0  0  0
   32.0299    6.9693   17.1965 H   0  0  0  0  0  0  0  0  0  0  0  0
   30.9490    7.7298   18.3832 H   0  0  0  0  0  0  0  0  0  0  0  0
   33.7984   10.1766   19.2469 H   0  0  0  0  0  0  0  0  0  0  0  0
   33.2960    8.7052   20.1582 H   0  0  0  0  0  0  0  0  0  0  0  0
   32.1034    9.9254   19.6401 H   0  0  0  0  0  0  0  0  0  0  0  0
   32.7518    9.2033   16.0848 H   0  0  0  0  0  0  0  0  0  0  0  0
   32.9946   10.5893   17.1283 H   0  0  0  0  0  0  0  0  0  0  0  0
   29.0859    9.4930   16.5931 H   0  0  0  0  0  0  0  0  0  0  0  0
   27.7196    8.1104   17.6932 H   0  0  0  0  0  0  0  0  0  0  0  0
   25.9849    6.8746   17.7417 H   0  0  0  0  0  0  0  0  0  0  0  0
   23.9954    5.4860   17.9260 H   0  0  0  0  0  0  0  0  0  0  0  0
   22.9490    5.0509   20.1473 H   0  0  0  0  0  0  0  0  0  0  0  0
   23.9419    6.0312   22.1790 H   0  0  0  0  0  0  0  0  0  0  0  0
   27.6111    8.7463   23.1151 H   0  0  0  0  0  0  0  0  0  0  0  0
   29.3799    9.9249   21.9671 H   0  0  0  0  0  0  0  0  0  0  0  0
   30.3984   10.6584   19.8817 H   0  0  0  0  0  0  0  0  0  0  0  0
   33.7444    8.3783   17.8324 H   0  0  0  0  0  0  0  0  0  0  0  0
  1  2  1  0  0  0  0
  1 23  1  0  0  0  0
  1 24  1  0  0  0  0
  1 25  1  0  0  0  0
  2  3  1  0  0  0  0
  2  4  1  0  0  0  0
  2 40  1  0  0  0  0
  3 26  1  0  0  0  0
  3 27  1  0  0  0  0
  3 28  1  0  0  0  0
  4  5  1  0  0  0  0
  4 29  1  0  0  0  0
  4 30  1  0  0  0  0
  5  6  2  0  0  0  0
  5  7  1  0  0  0  0
  7  8  1  0  0  0  0
  7 31  1  0  0  0  0
  8  9  2  0  0  0  0
  8 22  1  0  0  0  0
  9 10  1  0  0  0  0
  9 32  1  0  0  0  0
 10 11  1  0  0  0  0
 10 20  2  0  0  0  0
 11 12  2  0  0  0  0
 11 16  1  0  0  0  0
 12 13  1  0  0  0  0
 12 33  1  0  0  0  0
 13 14  2  0  0  0  0
 13 34  1  0  0  0  0
 14 15  1  0  0  0  0
 14 35  1  0  0  0  0
 15 16  2  0  0  0  0
 15 36  1  0  0  0  0
 16 17  1  0  0  0  0
 17 18  2  0  0  0  0
 17 19  1  0  0  0  0
 19 20  1  0  0  0  0
 19 37  1  0  0  0  0
 20 21  1  0  0  0  0
 21 22  2  0  0  0  0
 21 38  1  0  0  0  0
 22 39  1  0  0  0  0
M  CHG  2   2   1  19   1
M  END
$$$$
