PA5
 OpenBabel04041914473D

 23 22  0  0  1  0  0  0  0  0999 V2000
   13.5679    9.8777   28.6066 O   0  0  0  0  0  0  0  0  0  0  0  0
   14.6770   10.3612   28.9999 C   0  0  0  0  0  0  0  0  0  0  0  0
   15.2289   11.4532   28.6846 O   0  0  0  0  0  0  0  0  0  0  0  0
   15.3135    9.6170   30.2332 C   0  0  1  0  0  0  0  0  0  0  0  0
   14.4997    8.4856   30.6879 O   0  0  0  0  0  0  0  0  0  0  0  0
   16.7453    9.1933   29.9008 C   0  0  2  0  0  0  0  0  0  0  0  0
   16.7494    8.2458   28.8054 O   0  0  0  0  0  0  0  0  0  0  0  0
   17.4283    8.5388   31.1185 C   0  0  2  0  0  0  0  0  0  0  0  0
   17.4063    9.4348   32.2496 O   0  0  0  0  0  0  0  0  0  0  0  0
   18.8796    8.1448   30.8072 C   0  0  0  0  0  0  0  0  0  0  0  0
   19.6101    9.3182   30.4971 O   0  0  0  0  0  0  0  0  0  0  0  0
   21.1382    9.0810   29.9577 P   0  0  0  0  0  0  0  0  0  0  0  0
   21.8145    8.3222   31.0945 O   0  0  0  0  0  0  0  0  0  0  0  0
   20.9442    8.2336   28.6862 O   0  0  0  0  0  0  0  0  0  0  0  0
   21.6699   10.4711   29.7201 O   0  0  0  0  0  0  0  0  0  0  0  0
   15.3012   10.3265   31.0587 H   0  0  0  0  0  0  0  0  0  0  0  0
   13.5945    8.7847   30.4730 H   0  0  0  0  0  0  0  0  0  0  0  0
   17.3034   10.0770   29.5880 H   0  0  0  0  0  0  0  0  0  0  0  0
   17.6859    8.2045   28.5178 H   0  0  0  0  0  0  0  0  0  0  0  0
   16.8890    7.6224   31.4119 H   0  0  0  0  0  0  0  0  0  0  0  0
   18.0180   10.1431   31.9654 H   0  0  0  0  0  0  0  0  0  0  0  0
   18.9126    7.4325   29.9756 H   0  0  0  0  0  0  0  0  0  0  0  0
   19.3349    7.6716   31.6835 H   0  0  0  0  0  0  0  0  0  0  0  0
  1  2  2  0  0  0  0
  2  4  1  0  0  0  0
  2  3  1  0  0  0  0
  4  6  1  0  0  0  0
  4  5  1  0  0  0  0
  4 16  1  1  0  0  0
  5 17  1  0  0  0  0
  6  8  1  0  0  0  0
  6  7  1  0  0  0  0
  6 18  1  6  0  0  0
  7 19  1  0  0  0  0
  8 10  1  0  0  0  0
  8  9  1  0  0  0  0
  8 20  1  1  0  0  0
  9 21  1  0  0  0  0
 10 11  1  0  0  0  0
 10 22  1  0  0  0  0
 10 23  1  0  0  0  0
 11 12  1  0  0  0  0
 12 15  2  0  0  0  0
 12 14  1  0  0  0  0
 12 13  1  0  0  0  0
M  END
$$$$
