PAL
 OpenBabel04041914143D

 22 21  0  0  1  0  0  0  0  0999 V2000
   46.2376   29.6175   15.7344 P   0  0  0  0  0  0  0  0  0  0  0  0
   46.3374   30.2740   17.0955 O   0  0  0  0  0  0  0  0  0  0  0  0
   46.9623   28.2577   15.6659 O   0  0  0  0  0  0  0  0  0  0  0  0
   46.5673   30.5044   14.5377 O   0  0  0  0  0  0  0  0  0  0  0  0
   44.4673   29.1226   15.5011 C   0  0  0  0  0  0  0  0  0  0  0  0
   43.3163   30.0254   15.8863 C   0  0  0  0  0  0  0  0  0  0  0  0
   42.7981   30.8217   15.0944 O   0  0  0  0  0  0  0  0  0  0  0  0
   42.6880   29.6426   17.0745 N   0  0  0  0  0  0  0  0  0  0  0  0
   41.5373   30.3735   17.6576 C   0  0  2  0  0  0  0  0  0  0  0  0
   41.7410   31.8120   18.2547 C   0  0  0  0  0  0  0  0  0  0  0  0
   40.6507   32.3887   18.6178 O   0  0  0  0  0  0  0  0  0  0  0  0
   42.8799   32.3735   18.1990 O   0  0  0  0  0  0  0  0  0  0  0  0
   40.7520   29.4846   18.6307 C   0  0  0  0  0  0  0  0  0  0  0  0
   41.3148   29.0686   19.9938 C   0  0  0  0  0  0  0  0  0  0  0  0
   42.4463   29.4434   20.3482 O   0  0  0  0  0  0  0  0  0  0  0  0
   40.5252   28.2863   20.6442 O   0  0  0  0  0  0  0  0  0  0  0  0
   44.3341   28.1517   15.9957 H   0  0  0  0  0  0  0  0  0  0  0  0
   44.3575   28.9139   14.4280 H   0  0  0  0  0  0  0  0  0  0  0  0
   43.3208   29.2430   17.7627 H   0  0  0  0  0  0  0  0  0  0  0  0
   40.8698   30.5511   16.8007 H   0  0  0  0  0  0  0  0  0  0  0  0
   40.4788   28.5563   18.1111 H   0  0  0  0  0  0  0  0  0  0  0  0
   39.7984   29.9808   18.8547 H   0  0  0  0  0  0  0  0  0  0  0  0
  1  5  1  0  0  0  0
  1  4  2  0  0  0  0
  1  3  1  0  0  0  0
  1  2  1  0  0  0  0
  5  6  1  0  0  0  0
  5 17  1  0  0  0  0
  5 18  1  0  0  0  0
  6  8  1  0  0  0  0
  6  7  2  0  0  0  0
  8  9  1  0  0  0  0
  8 19  1  0  0  0  0
  9 13  1  0  0  0  0
  9 10  1  0  0  0  0
  9 20  1  6  0  0  0
 10 12  2  0  0  0  0
 10 11  1  0  0  0  0
 13 14  1  0  0  0  0
 13 21  1  0  0  0  0
 13 22  1  0  0  0  0
 14 16  2  0  0  0  0
 14 15  1  0  0  0  0
M  END
$$$$
