PAX
 OpenBabel04041917033D

 74 78  0  0  1  0  0  0  0  0999 V2000
  -30.2430  -29.4262   17.2807 P   0  0  1  0  0  0  0  0  0  0  0  0
  -31.3762  -30.1725   17.9179 O   0  0  0  0  0  0  0  0  0  0  0  0
  -30.3553  -29.0337   15.8215 O   0  0  0  0  0  0  0  0  0  0  0  0
  -29.8754  -28.0713   18.1039 O   0  0  0  0  0  0  0  0  0  0  0  0
  -28.2053  -30.8368   18.7502 P   0  0  1  0  0  0  0  0  0  0  0  0
  -27.0233  -29.9726   19.2112 O   0  0  0  0  0  0  0  0  0  0  0  0
  -29.2025  -31.2889   19.7835 O   0  0  0  0  0  0  0  0  0  0  0  0
  -28.8601  -30.2394   17.4436 O   0  0  0  0  0  0  0  0  0  0  0  0
  -34.9043  -26.8064   18.1551 P   0  0  0  0  0  0  0  0  0  0  0  0
  -34.6865  -26.8693   19.6676 O   0  0  0  0  0  0  0  0  0  0  0  0
  -36.1085  -25.9274   17.7835 O   0  0  0  0  0  0  0  0  0  0  0  0
  -34.9004  -28.1217   17.4375 O   0  0  0  0  0  0  0  0  0  0  0  0
  -29.7758  -23.9947   16.1288 N   0  3  0  0  0  0  0  0  0  0  0  0
  -28.8700  -24.4392   15.1900 C   0  0  0  0  0  0  0  0  0  0  0  0
  -28.7277  -25.6532   14.6480 N   0  0  0  0  0  0  0  0  0  0  0  0
  -27.7268  -25.7485   13.7600 C   0  0  0  0  0  0  0  0  0  0  0  0
  -26.8932  -24.7497   13.3453 N   0  0  0  0  0  0  0  0  0  0  0  0
  -27.0494  -23.5297   13.8989 C   0  0  0  0  0  0  0  0  0  0  0  0
  -26.1847  -22.5121   13.4630 N   0  0  0  0  0  0  0  0  0  0  0  0
  -28.0679  -23.3297   14.8590 C   0  0  0  0  0  0  0  0  0  0  0  0
  -28.4740  -22.2165   15.5736 N   0  0  0  0  0  0  0  0  0  0  0  0
  -29.4795  -22.6445   16.3189 C   0  0  0  0  0  0  0  0  0  0  0  0
  -30.8327  -27.5606   19.0097 C   0  0  0  0  0  0  0  0  0  0  0  0
  -31.4290  -26.2799   18.4505 C   0  0  1  0  0  0  0  0  0  0  0  0
  -30.3630  -25.3453   18.0199 O   0  0  0  0  0  0  0  0  0  0  0  0
  -30.8650  -24.7116   16.8255 C   0  0  2  0  0  0  0  0  0  0  0  0
  -31.6639  -25.8063   16.1041 C   0  0  2  0  0  0  0  0  0  0  0  0
  -32.5271  -25.2646   15.0857 O   0  0  0  0  0  0  0  0  0  0  0  0
  -32.3819  -26.5320   17.2737 C   0  0  2  0  0  0  0  0  0  0  0  0
  -33.6410  -25.8990   17.5733 O   0  0  0  0  0  0  0  0  0  0  0  0
  -25.7784  -33.8116   14.1456 O   0  0  0  0  0  0  0  0  0  0  0  0
  -27.0090  -33.6587   14.8486 C   0  0  0  0  0  0  0  0  0  0  0  0
  -26.7987  -33.6860   16.3803 C   0  0  1  0  0  0  0  0  0  0  0  0
  -25.5667  -34.3975   16.7190 O   0  0  0  0  0  0  0  0  0  0  0  0
  -24.8238  -33.5655   17.6228 C   0  0  2  0  0  0  0  0  0  0  0  0
  -25.2946  -32.1355   17.4199 C   0  0  0  0  0  0  0  0  0  0  0  0
  -26.7352  -32.2798   17.0000 C   0  0  2  0  0  0  0  0  0  0  0  0
  -27.5667  -32.2498   18.1589 O   0  0  0  0  0  0  0  0  0  0  0  0
  -25.4301  -32.8962   12.8309 P   0  0  0  0  0  0  0  0  0  0  0  0
  -24.3311  -33.6957   12.1209 O   0  0  0  0  0  0  0  0  0  0  0  0
  -24.9171  -31.5799   13.3800 O   0  0  0  0  0  0  0  0  0  0  0  0
  -26.7162  -32.8232   12.0333 O   0  0  0  0  0  0  0  0  0  0  0  0
  -23.3616  -33.7723   17.4385 N   0  3  0  0  0  0  0  0  0  0  0  0
  -22.7843  -33.7810   16.1646 C   0  0  0  0  0  0  0  0  0  0  0  0
  -22.5881  -33.8987   18.5727 C   0  0  0  0  0  0  0  0  0  0  0  0
  -22.9920  -33.9149   19.7511 O   0  0  0  0  0  0  0  0  0  0  0  0
  -21.2203  -34.0777   18.3523 N   0  3  0  0  0  0  0  0  0  0  0  0
  -20.5870  -34.0882   17.1255 C   0  0  0  0  0  0  0  0  0  0  0  0
  -19.3617  -34.2338   17.0418 O   0  0  0  0  0  0  0  0  0  0  0  0
  -21.4785  -33.9351   15.9625 C   0  0  0  0  0  0  0  0  0  0  0  0
  -20.9150  -33.9419   14.5594 C   0  0  0  0  0  0  0  0  0  0  0  0
  -27.5726  -26.7260   13.2985 H   0  0  0  0  0  0  0  0  0  0  0  0
  -26.2904  -21.6073   13.8689 H   0  0  0  0  0  0  0  0  0  0  0  0
  -25.4912  -22.7662   12.7821 H   0  0  0  0  0  0  0  0  0  0  0  0
  -30.0371  -22.0257   17.0141 H   0  0  0  0  0  0  0  0  0  0  0  0
  -30.3111  -27.3210   19.9516 H   0  0  0  0  0  0  0  0  0  0  0  0
  -31.6258  -28.2703   19.2297 H   0  0  0  0  0  0  0  0  0  0  0  0
  -31.9701  -25.7762   19.2617 H   0  0  0  0  0  0  0  0  0  0  0  0
  -31.5622  -23.9264   17.1679 H   0  0  0  0  0  0  0  0  0  0  0  0
  -30.9707  -26.4959   15.6271 H   0  0  0  0  0  0  0  0  0  0  0  0
  -33.2024  -24.7392   15.5551 H   0  0  0  0  0  0  0  0  0  0  0  0
  -32.5148  -27.5929   17.0535 H   0  0  0  0  0  0  0  0  0  0  0  0
  -27.6731  -34.5015   14.5885 H   0  0  0  0  0  0  0  0  0  0  0  0
  -27.5255  -32.7372   14.5725 H   0  0  0  0  0  0  0  0  0  0  0  0
  -27.6279  -34.2552   16.8388 H   0  0  0  0  0  0  0  0  0  0  0  0
  -25.1097  -33.8967   18.6365 H   0  0  0  0  0  0  0  0  0  0  0  0
  -24.7140  -31.6632   16.6249 H   0  0  0  0  0  0  0  0  0  0  0  0
  -25.1867  -31.5519   18.3361 H   0  0  0  0  0  0  0  0  0  0  0  0
  -27.0524  -31.5106   16.2979 H   0  0  0  0  0  0  0  0  0  0  0  0
  -23.4597  -33.6560   15.3043 H   0  0  0  0  0  0  0  0  0  0  0  0
  -20.6287  -34.1774   19.1499 H   0  0  0  0  0  0  0  0  0  0  0  0
  -21.7178  -33.8139   13.8200 H   0  0  0  0  0  0  0  0  0  0  0  0
  -20.4114  -34.8916   14.3460 H   0  0  0  0  0  0  0  0  0  0  0  0
  -20.1993  -33.1238   14.4235 H   0  0  0  0  0  0  0  0  0  0  0  0
  1  2  2  1  0  0  0
  1  3  1  0  0  0  0
  1  4  1  0  0  0  0
  1  8  1  0  0  0  0
  4 23  1  0  0  0  0
  5  6  2  1  0  0  0
  5  7  1  0  0  0  0
  5  8  1  0  0  0  0
  5 38  1  0  0  0  0
  9 10  2  0  0  0  0
  9 11  1  0  0  0  0
  9 12  1  0  0  0  0
  9 30  1  0  0  0  0
 13 14  1  0  0  0  0
 13 22  2  0  0  0  0
 13 26  1  0  0  0  0
 14 15  2  0  0  0  0
 14 20  1  0  0  0  0
 15 16  1  0  0  0  0
 16 17  2  0  0  0  0
 16 52  1  0  0  0  0
 17 18  1  0  0  0  0
 18 19  1  0  0  0  0
 18 20  2  0  0  0  0
 19 53  1  0  0  0  0
 19 54  1  0  0  0  0
 20 21  1  0  0  0  0
 21 22  1  0  0  0  0
 22 55  1  0  0  0  0
 23 24  1  0  0  0  0
 23 56  1  0  0  0  0
 23 57  1  0  0  0  0
 24 25  1  0  0  0  0
 24 29  1  0  0  0  0
 24 58  1  1  0  0  0
 25 26  1  0  0  0  0
 26 27  1  0  0  0  0
 26 59  1  1  0  0  0
 27 28  1  0  0  0  0
 27 29  1  0  0  0  0
 27 60  1  6  0  0  0
 28 61  1  0  0  0  0
 29 30  1  0  0  0  0
 29 62  1  6  0  0  0
 31 32  1  0  0  0  0
 31 39  1  0  0  0  0
 32 33  1  0  0  0  0
 32 63  1  0  0  0  0
 32 64  1  0  0  0  0
 33 34  1  0  0  0  0
 33 37  1  0  0  0  0
 33 65  1  1  0  0  0
 34 35  1  0  0  0  0
 35 36  1  0  0  0  0
 35 43  1  0  0  0  0
 35 66  1  1  0  0  0
 36 37  1  0  0  0  0
 36 67  1  0  0  0  0
 36 68  1  0  0  0  0
 37 38  1  0  0  0  0
 37 69  1  6  0  0  0
 39 40  2  0  0  0  0
 39 41  1  0  0  0  0
 39 42  1  0  0  0  0
 43 44  1  0  0  0  0
 43 45  1  0  0  0  0
 44 50  2  0  0  0  0
 44 70  1  0  0  0  0
 45 46  2  0  0  0  0
 45 47  1  0  0  0  0
 47 48  1  0  0  0  0
 47 71  1  0  0  0  0
 48 49  2  0  0  0  0
 48 50  1  0  0  0  0
 50 51  1  0  0  0  0
 51 72  1  0  0  0  0
 51 73  1  0  0  0  0
 51 74  1  0  0  0  0
M  CHG  3  13   1  43   1  47   1
M  END
$$$$
