PBN
 OpenBabel04041917003D

 27 27  0  0  0  0  0  0  0  0999 V2000
   29.0071   15.5324   14.0708 C   0  0  0  0  0  0  0  0  0  0  0  0
   29.7617   15.7500   15.3802 C   0  0  0  0  0  0  0  0  0  0  0  0
   28.8708   15.4511   16.5938 C   0  0  0  0  0  0  0  0  0  0  0  0
   29.5773   14.6348   17.6828 C   0  0  0  0  0  0  0  0  0  0  0  0
   30.0679   13.2500   17.3108 C   0  0  0  0  0  0  0  0  0  0  0  0
   29.4441   12.4409   16.3507 C   0  0  0  0  0  0  0  0  0  0  0  0
   29.8663   11.1223   16.1448 C   0  0  0  0  0  0  0  0  0  0  0  0
   30.9033   10.5904   16.9081 C   0  0  0  0  0  0  0  0  0  0  0  0
   31.5352   11.3801   17.8608 C   0  0  0  0  0  0  0  0  0  0  0  0
   31.1240   12.7004   18.0577 C   0  0  0  0  0  0  0  0  0  0  0  0
   29.9372   15.0210   13.0441 N   0  3  0  0  0  0  0  0  0  0  0  0
   28.5794   16.4641   13.6898 H   0  0  0  0  0  0  0  0  0  0  0  0
   28.2182   14.7802   14.1528 H   0  0  0  0  0  0  0  0  0  0  0  0
   30.0921   16.7965   15.4291 H   0  0  0  0  0  0  0  0  0  0  0  0
   30.6784   15.1492   15.4083 H   0  0  0  0  0  0  0  0  0  0  0  0
   27.9490   14.9364   16.3004 H   0  0  0  0  0  0  0  0  0  0  0  0
   28.5489   16.4040   17.0324 H   0  0  0  0  0  0  0  0  0  0  0  0
   28.8781   14.5099   18.5197 H   0  0  0  0  0  0  0  0  0  0  0  0
   30.4226   15.2280   18.0600 H   0  0  0  0  0  0  0  0  0  0  0  0
   28.5895   12.7925   15.7843 H   0  0  0  0  0  0  0  0  0  0  0  0
   29.3580   10.4880   15.4205 H   0  0  0  0  0  0  0  0  0  0  0  0
   31.1972    9.5499   16.7852 H   0  0  0  0  0  0  0  0  0  0  0  0
   32.3304   10.9628   18.4753 H   0  0  0  0  0  0  0  0  0  0  0  0
   31.6133   13.2872   18.8334 H   0  0  0  0  0  0  0  0  0  0  0  0
   29.4472   14.8172   12.1622 H   0  0  0  0  0  0  0  0  0  0  0  0
   30.6866   15.6957   12.8306 H   0  0  0  0  0  0  0  0  0  0  0  0
   30.3907   14.1474   13.3485 H   0  0  0  0  0  0  0  0  0  0  0  0
  1  2  1  0  0  0  0
  1 11  1  0  0  0  0
  1 12  1  0  0  0  0
  1 13  1  0  0  0  0
  2  3  1  0  0  0  0
  2 14  1  0  0  0  0
  2 15  1  0  0  0  0
  3  4  1  0  0  0  0
  3 16  1  0  0  0  0
  3 17  1  0  0  0  0
  4  5  1  0  0  0  0
  4 18  1  0  0  0  0
  4 19  1  0  0  0  0
  5  6  2  0  0  0  0
  5 10  1  0  0  0  0
  6  7  1  0  0  0  0
  6 20  1  0  0  0  0
  7  8  2  0  0  0  0
  7 21  1  0  0  0  0
  8  9  1  0  0  0  0
  8 22  1  0  0  0  0
  9 10  2  0  0  0  0
  9 23  1  0  0  0  0
 10 24  1  0  0  0  0
 11 25  1  0  0  0  0
 11 26  1  0  0  0  0
 11 27  1  0  0  0  0
M  CHG  1  11   1
M  END
$$$$
