PBR
 OpenBabel04041914233D

 13 13  0  0  0  0  0  0  0  0999 V2000
   42.9819    0.0085   29.2240 O   0  0  0  0  0  0  0  0  0  0  0  0
   41.8971    0.5138   27.1635 C   0  0  0  0  0  0  0  0  0  0  0  0
   41.8932    0.5186   25.7567 C   0  0  0  0  0  0  0  0  0  0  0  0
   42.9990   -0.0006   25.0566 C   0  0  0  0  0  0  0  0  0  0  0  0
   44.1062   -0.5190   25.7547 C   0  0  0  0  0  0  0  0  0  0  0  0
   44.0994   -0.5125   27.1576 C   0  0  0  0  0  0  0  0  0  0  0  0
   43.0014   -0.0012   27.8560 C   0  0  0  0  0  0  0  0  0  0  0  0
   40.4336    1.2033   28.1747 Br  0  0  0  0  0  0  0  0  0  0  0  0
   40.3924    1.2373   24.8141 Br  0  0  0  0  0  0  0  0  0  0  0  0
   43.0000    0.0000   23.1327 Br  0  0  0  0  0  0  0  0  0  0  0  0
   45.6087   -1.2370   24.8139 Br  0  0  0  0  0  0  0  0  0  0  0  0
   45.5645   -1.2002   28.1771 Br  0  0  0  0  0  0  0  0  0  0  0  0
   43.8252   -0.3814   29.5383 H   0  0  0  0  0  0  0  0  0  0  0  0
  1  7  1  0  0  0  0
  1 13  1  0  0  0  0
  2  3  2  0  0  0  0
  2  7  1  0  0  0  0
  2  8  1  0  0  0  0
  3  4  1  0  0  0  0
  3  9  1  0  0  0  0
  4  5  2  0  0  0  0
  4 10  1  0  0  0  0
  5  6  1  0  0  0  0
  5 11  1  0  0  0  0
  6  7  2  0  0  0  0
  6 12  1  0  0  0  0
M  END
$$$$
