PEA
 OpenBabel04041917113D

 21 21  0  0  0  0  0  0  0  0999 V2000
   45.2957   20.3195   50.4426 C   0  0  0  0  0  0  0  0  0  0  0  0
   46.3196   21.2576   50.6382 C   0  0  0  0  0  0  0  0  0  0  0  0
   46.1710   22.5658   50.1896 C   0  0  0  0  0  0  0  0  0  0  0  0
   45.0083   22.9455   49.5237 C   0  0  0  0  0  0  0  0  0  0  0  0
   43.9936   22.0159   49.3064 C   0  0  0  0  0  0  0  0  0  0  0  0
   44.1330   20.7048   49.7644 C   0  0  0  0  0  0  0  0  0  0  0  0
   45.4479   18.9224   50.9736 C   0  0  0  0  0  0  0  0  0  0  0  0
   45.5274   18.9415   52.4983 C   0  0  0  0  0  0  0  0  0  0  0  0
   45.7797   17.5737   53.0106 N   0  3  0  0  0  0  0  0  0  0  0  0
   47.2453   20.9874   51.1390 H   0  0  0  0  0  0  0  0  0  0  0  0
   46.9649   23.2928   50.3513 H   0  0  0  0  0  0  0  0  0  0  0  0
   44.8959   23.9669   49.1640 H   0  0  0  0  0  0  0  0  0  0  0  0
   43.0924   22.3140   48.7745 H   0  0  0  0  0  0  0  0  0  0  0  0
   43.3228   20.0057   49.5825 H   0  0  0  0  0  0  0  0  0  0  0  0
   46.3520   18.4769   50.5388 H   0  0  0  0  0  0  0  0  0  0  0  0
   44.6067   18.2956   50.6531 H   0  0  0  0  0  0  0  0  0  0  0  0
   44.5925   19.2895   52.9508 H   0  0  0  0  0  0  0  0  0  0  0  0
   46.3504   19.5609   52.8679 H   0  0  0  0  0  0  0  0  0  0  0  0
   45.8403   17.5762   54.0368 H   0  0  0  0  0  0  0  0  0  0  0  0
   45.0270   16.9240   52.7475 H   0  0  0  0  0  0  0  0  0  0  0  0
   46.6666   17.1943   52.6523 H   0  0  0  0  0  0  0  0  0  0  0  0
  1  2  2  0  0  0  0
  1  6  1  0  0  0  0
  1  7  1  0  0  0  0
  2  3  1  0  0  0  0
  2 10  1  0  0  0  0
  3  4  2  0  0  0  0
  3 11  1  0  0  0  0
  4  5  1  0  0  0  0
  4 12  1  0  0  0  0
  5  6  2  0  0  0  0
  5 13  1  0  0  0  0
  6 14  1  0  0  0  0
  7  8  1  0  0  0  0
  7 15  1  0  0  0  0
  7 16  1  0  0  0  0
  8  9  1  0  0  0  0
  8 17  1  0  0  0  0
  8 18  1  0  0  0  0
  9 19  1  0  0  0  0
  9 20  1  0  0  0  0
  9 21  1  0  0  0  0
M  CHG  1   9   1
M  END
$$$$
