PFA
 OpenBabel04041915493D

 48 50  0  0  0  0  0  0  0  0999 V2000
   17.0954    5.1992    6.1929 O   0  0  0  0  0  0  0  0  0  0  0  0
   17.9839    4.3488    6.1740 C   0  0  0  0  0  0  0  0  0  0  0  0
   17.9368    3.3205    7.0832 N   0  3  0  0  0  0  0  0  0  0  0  0
   18.8930    2.3683    7.2198 C   0  0  0  0  0  0  0  0  0  0  0  0
   18.9120    1.4899    8.0668 O   0  0  0  0  0  0  0  0  0  0  0  0
   19.0981    4.3511    5.3297 N   0  0  0  0  0  0  0  0  0  0  0  0
   20.1277    3.4329    5.3842 N   0  0  0  0  0  0  0  0  0  0  0  0
   20.0297    2.4749    6.2481 C   0  0  0  0  0  0  0  0  0  0  0  0
   19.3668    5.4273    4.4469 C   0  0  0  0  0  0  0  0  0  0  0  0
   20.5313    6.1783    4.6547 C   0  0  0  0  0  0  0  0  0  0  0  0
   20.8826    7.2245    3.7944 C   0  0  0  0  0  0  0  0  0  0  0  0
   22.0816    8.0699    4.1120 C   0  0  0  0  0  0  0  0  0  0  0  0
   18.5412    5.7163    3.3634 C   0  0  0  0  0  0  0  0  0  0  0  0
   18.9023    6.7215    2.4403 C   0  0  0  0  0  0  0  0  0  0  0  0
   18.0557    7.0032    1.2295 C   0  0  0  0  0  0  0  0  0  0  0  0
   20.0844    7.4551    2.6628 C   0  0  0  0  0  0  0  0  0  0  0  0
   20.3781    8.4913    1.8015 O   0  0  0  0  0  0  0  0  0  0  0  0
   21.4267    8.3110    0.9204 C   0  0  0  0  0  0  0  0  0  0  0  0
   21.7064    7.1151    0.2603 C   0  0  0  0  0  0  0  0  0  0  0  0
   22.1996    9.4443    0.6663 C   0  0  0  0  0  0  0  0  0  0  0  0
   23.2780    9.4043   -0.2338 C   0  0  0  0  0  0  0  0  0  0  0  0
   24.1515   10.6271   -0.4491 C   0  0  0  0  0  0  0  0  0  0  0  0
   23.3264   11.8908   -0.7104 C   0  0  0  0  0  0  0  0  0  0  0  0
   25.0826   10.8059    0.7501 C   0  0  0  0  0  0  0  0  0  0  0  0
   23.5409    8.1961   -0.8847 C   0  0  0  0  0  0  0  0  0  0  0  0
   22.7657    7.0584   -0.6482 C   0  0  0  0  0  0  0  0  0  0  0  0
   24.5816    8.1282   -1.7637 O   0  0  0  0  0  0  0  0  0  0  0  0
   17.1820    3.3337    7.7515 H   0  0  0  0  0  0  0  0  0  0  0  0
   20.7899    1.6840    6.3179 H   0  0  0  0  0  0  0  0  0  0  0  0
   21.1427    5.9694    5.5309 H   0  0  0  0  0  0  0  0  0  0  0  0
   22.5280    7.7850    5.0704 H   0  0  0  0  0  0  0  0  0  0  0  0
   21.7911    9.1230    4.1881 H   0  0  0  0  0  0  0  0  0  0  0  0
   22.8502    7.9509    3.3457 H   0  0  0  0  0  0  0  0  0  0  0  0
   17.6340    5.1369    3.1968 H   0  0  0  0  0  0  0  0  0  0  0  0
   17.2197    6.3032    1.1474 H   0  0  0  0  0  0  0  0  0  0  0  0
   18.6518    6.9023    0.3166 H   0  0  0  0  0  0  0  0  0  0  0  0
   17.6498    8.0188    1.2777 H   0  0  0  0  0  0  0  0  0  0  0  0
   21.1095    6.2238    0.4361 H   0  0  0  0  0  0  0  0  0  0  0  0
   21.9627   10.3573    1.2042 H   0  0  0  0  0  0  0  0  0  0  0  0
   24.7762   10.4820   -1.3389 H   0  0  0  0  0  0  0  0  0  0  0  0
   23.9808   12.7430   -0.9245 H   0  0  0  0  0  0  0  0  0  0  0  0
   22.7035   12.1667    0.1472 H   0  0  0  0  0  0  0  0  0  0  0  0
   22.6639   11.7496   -1.5723 H   0  0  0  0  0  0  0  0  0  0  0  0
   25.7260    9.9267    0.8765 H   0  0  0  0  0  0  0  0  0  0  0  0
   24.5223   10.9390    1.6823 H   0  0  0  0  0  0  0  0  0  0  0  0
   25.7303   11.6776    0.6186 H   0  0  0  0  0  0  0  0  0  0  0  0
   22.9916    6.1215   -1.1494 H   0  0  0  0  0  0  0  0  0  0  0  0
   24.2708    7.6422   -2.5446 H   0  0  0  0  0  0  0  0  0  0  0  0
  1  2  2  0  0  0  0
  2  3  1  0  0  0  0
  2  6  1  0  0  0  0
  3  4  1  0  0  0  0
  3 28  1  0  0  0  0
  4  5  2  0  0  0  0
  4  8  1  0  0  0  0
  6  7  1  0  0  0  0
  6  9  1  0  0  0  0
  7  8  1  0  0  0  0
  8 29  1  0  0  0  0
  9 10  2  0  0  0  0
  9 13  1  0  0  0  0
 10 11  1  0  0  0  0
 10 30  1  0  0  0  0
 11 12  1  0  0  0  0
 11 16  2  0  0  0  0
 12 31  1  0  0  0  0
 12 32  1  0  0  0  0
 12 33  1  0  0  0  0
 13 14  2  0  0  0  0
 13 34  1  0  0  0  0
 14 15  1  0  0  0  0
 14 16  1  0  0  0  0
 15 35  1  0  0  0  0
 15 36  1  0  0  0  0
 15 37  1  0  0  0  0
 16 17  1  0  0  0  0
 17 18  1  0  0  0  0
 18 19  2  0  0  0  0
 18 20  1  0  0  0  0
 19 26  1  0  0  0  0
 19 38  1  0  0  0  0
 20 21  2  0  0  0  0
 20 39  1  0  0  0  0
 21 22  1  0  0  0  0
 21 25  1  0  0  0  0
 22 23  1  0  0  0  0
 22 24  1  0  0  0  0
 22 40  1  0  0  0  0
 23 41  1  0  0  0  0
 23 42  1  0  0  0  0
 23 43  1  0  0  0  0
 24 44  1  0  0  0  0
 24 45  1  0  0  0  0
 24 46  1  0  0  0  0
 25 26  2  0  0  0  0
 25 27  1  0  0  0  0
 26 47  1  0  0  0  0
 27 48  1  0  0  0  0
M  CHG  1   3   1
M  END
$$$$
