PGA
 OpenBabel04041915233D

 11 10  0  0  0  0  0  0  0  0999 V2000
  -10.7665   -6.8882   49.1763 P   0  0  0  0  0  0  0  0  0  0  0  0
   -9.3236   -6.8832   48.3811 O   0  0  0  0  0  0  0  0  0  0  0  0
  -10.6526   -7.9607   50.2571 O   0  0  0  0  0  0  0  0  0  0  0  0
  -11.8124   -7.2037   48.1114 O   0  0  0  0  0  0  0  0  0  0  0  0
  -10.8820   -5.4736   49.7401 O   0  0  0  0  0  0  0  0  0  0  0  0
   -8.6530   -8.1381   48.1984 C   0  0  0  0  0  0  0  0  0  0  0  0
   -7.3083   -8.0138   47.4180 C   0  0  0  0  0  0  0  0  0  0  0  0
   -6.3490   -8.7302   47.8724 O   0  0  0  0  0  0  0  0  0  0  0  0
   -7.2758   -7.3227   46.3539 O   0  0  0  0  0  0  0  0  0  0  0  0
   -9.3072   -8.8350   47.6678 H   0  0  0  0  0  0  0  0  0  0  0  0
   -8.4295   -8.5478   49.1905 H   0  0  0  0  0  0  0  0  0  0  0  0
  1  2  1  0  0  0  0
  1  3  2  0  0  0  0
  1  4  1  0  0  0  0
  1  5  1  0  0  0  0
  2  6  1  0  0  0  0
  6  7  1  0  0  0  0
  6 10  1  0  0  0  0
  6 11  1  0  0  0  0
  7  8  2  0  0  0  0
  7  9  1  0  0  0  0
M  END
$$$$
