PGA
 OpenBabel04041914273D

 11 10  0  0  0  0  0  0  0  0999 V2000
   84.1741  -12.2478   66.6951 P   0  0  0  0  0  0  0  0  0  0  0  0
   85.3478  -13.1013   65.9227 O   0  0  0  0  0  0  0  0  0  0  0  0
   84.6559  -12.1230   68.1405 O   0  0  0  0  0  0  0  0  0  0  0  0
   84.1304  -10.9149   65.9565 O   0  0  0  0  0  0  0  0  0  0  0  0
   82.9017  -13.0751   66.5478 O   0  0  0  0  0  0  0  0  0  0  0  0
   85.7332  -14.3592   66.4967 C   0  0  0  0  0  0  0  0  0  0  0  0
   86.3291  -15.3316   65.4498 C   0  0  0  0  0  0  0  0  0  0  0  0
   85.5984  -15.7554   64.5051 O   0  0  0  0  0  0  0  0  0  0  0  0
   87.5211  -15.7377   65.6918 O   0  0  0  0  0  0  0  0  0  0  0  0
   84.8758  -14.8390   66.9794 H   0  0  0  0  0  0  0  0  0  0  0  0
   86.4872  -14.1552   67.2681 H   0  0  0  0  0  0  0  0  0  0  0  0
  1  5  2  0  0  0  0
  1  4  1  0  0  0  0
  1  3  1  0  0  0  0
  1  2  1  0  0  0  0
  2  6  1  0  0  0  0
  6  7  1  0  0  0  0
  6 10  1  0  0  0  0
  6 11  1  0  0  0  0
  7  9  2  0  0  0  0
  7  8  1  0  0  0  0
M  END
$$$$
