PGG
 OpenBabel04041917493D

 36 36  0  0  0  0  0  0  0  0999 V2000
   11.8335   37.6171   61.7605 C   0  0  0  0  0  0  0  0  0  0  0  0
   11.5946   38.9099   61.2997 C   0  0  0  0  0  0  0  0  0  0  0  0
   10.3376   39.4861   61.4658 C   0  0  0  0  0  0  0  0  0  0  0  0
    9.3227   38.7463   62.0898 C   0  0  0  0  0  0  0  0  0  0  0  0
    9.5534   37.4279   62.5154 C   0  0  0  0  0  0  0  0  0  0  0  0
   10.8176   36.8632   62.3432 C   0  0  0  0  0  0  0  0  0  0  0  0
   14.2237   37.6775   62.6942 P   0  0  1  0  0  0  0  0  0  0  0  0
   13.0900   37.0850   61.6737 O   0  0  0  0  0  0  0  0  0  0  0  0
   14.4957   39.1332   62.3878 O   0  0  0  0  0  0  0  0  0  0  0  0
   13.8911   37.2233   64.1015 O   0  0  0  0  0  0  0  0  0  0  0  0
   15.6654   36.7098   62.1639 C   0  0  0  0  0  0  0  0  0  0  0  0
   16.1233   36.8593   60.7166 C   0  0  0  0  0  0  0  0  0  0  0  0
   17.4280   36.0880   60.5499 C   0  0  0  0  0  0  0  0  0  0  0  0
   17.9130   35.9835   59.1183 C   0  0  0  0  0  0  0  0  0  0  0  0
   17.6051   34.7766   58.5334 N   0  0  0  0  0  0  0  0  0  0  0  0
   18.6027   36.8599   58.6101 O   0  0  0  0  0  0  0  0  0  0  0  0
   17.9206   34.5046   57.1268 C   0  0  0  0  0  0  0  0  0  0  0  0
   16.7828   34.7395   56.1020 C   0  0  0  0  0  0  0  0  0  0  0  0
   16.6233   33.7863   55.2732 O   0  0  0  0  0  0  0  0  0  0  0  0
   16.1329   35.8152   56.2024 O   0  0  0  0  0  0  0  0  0  0  0  0
    8.0110   39.3593   62.3075 N   0  0  0  0  0  0  0  0  0  0  0  0
    7.8248   40.5130   61.8821 O   0  0  0  0  0  0  0  0  0  0  0  0
    7.1480   38.6955   62.9001 O   0  0  0  0  0  0  0  0  0  0  0  0
   12.4155   39.4772   60.8626 H   0  0  0  0  0  0  0  0  0  0  0  0
   10.1866   40.5106   61.1389 H   0  0  0  0  0  0  0  0  0  0  0  0
    8.7799   36.8462   63.0083 H   0  0  0  0  0  0  0  0  0  0  0  0
   11.0375   35.8627   62.7056 H   0  0  0  0  0  0  0  0  0  0  0  0
   15.4535   35.6548   62.3709 H   0  0  0  0  0  0  0  0  0  0  0  0
   16.4842   37.0095   62.8293 H   0  0  0  0  0  0  0  0  0  0  0  0
   16.2738   37.9156   60.4721 H   0  0  0  0  0  0  0  0  0  0  0  0
   15.3521   36.4883   60.0327 H   0  0  0  0  0  0  0  0  0  0  0  0
   17.3204   35.0770   60.9606 H   0  0  0  0  0  0  0  0  0  0  0  0
   18.2255   36.5662   61.1303 H   0  0  0  0  0  0  0  0  0  0  0  0
   16.8806   34.2100   58.9447 H   0  0  0  0  0  0  0  0  0  0  0  0
   18.2162   33.4500   57.0924 H   0  0  0  0  0  0  0  0  0  0  0  0
   18.7859   35.1055   56.8273 H   0  0  0  0  0  0  0  0  0  0  0  0
  1  8  1  0  0  0  0
  1  6  2  0  0  0  0
  1  2  1  0  0  0  0
  2  3  2  0  0  0  0
  2 24  1  0  0  0  0
  3  4  1  0  0  0  0
  3 25  1  0  0  0  0
  4 21  1  0  0  0  0
  4  5  2  0  0  0  0
  5  6  1  0  0  0  0
  5 26  1  0  0  0  0
  6 27  1  0  0  0  0
  7  8  1  6  0  0  0
  7  9  2  0  0  0  0
  7 10  1  0  0  0  0
  7 11  1  0  0  0  0
 11 12  1  0  0  0  0
 11 28  1  0  0  0  0
 11 29  1  0  0  0  0
 12 13  1  0  0  0  0
 12 30  1  0  0  0  0
 12 31  1  0  0  0  0
 13 14  1  0  0  0  0
 13 32  1  0  0  0  0
 13 33  1  0  0  0  0
 14 16  2  0  0  0  0
 14 15  1  0  0  0  0
 15 17  1  0  0  0  0
 15 34  1  0  0  0  0
 17 18  1  0  0  0  0
 17 35  1  0  0  0  0
 17 36  1  0  0  0  0
 18 20  2  0  0  0  0
 18 19  1  0  0  0  0
 21 23  2  0  0  0  0
 21 22  2  0  0  0  0
M  END
$$$$
