PGH
 OpenBabel04041917013D

 14 13  0  0  0  0  0  0  0  0999 V2000
    5.5783  -23.7970  -16.5205 C   0  0  0  0  0  0  0  0  0  0  0  0
    6.7230  -23.3303  -17.4246 C   0  0  0  0  0  0  0  0  0  0  0  0
    4.3679  -23.2088  -16.9178 N   0  0  0  0  0  0  0  0  0  0  0  0
    3.2209  -23.3008  -16.1065 O   0  0  0  0  0  0  0  0  0  0  0  0
    5.6037  -24.5451  -15.5277 O   0  0  0  0  0  0  0  0  0  0  0  0
    7.9808  -23.3347  -16.7989 O   0  0  0  0  0  0  0  0  0  0  0  0
   10.4094  -22.8974  -16.8282 O   0  0  0  0  0  0  0  0  0  0  0  0
    9.3669  -24.7316  -18.3011 O   0  0  0  0  0  0  0  0  0  0  0  0
    8.9422  -22.2768  -18.8432 O   0  0  0  0  0  0  0  0  0  0  0  0
    9.2900  -23.3063  -17.7755 P   0  0  0  0  0  0  0  0  0  0  0  0
    6.5073  -22.2953  -17.7097 H   0  0  0  0  0  0  0  0  0  0  0  0
    6.7118  -23.9303  -18.3321 H   0  0  0  0  0  0  0  0  0  0  0  0
    4.2788  -22.7532  -17.8171 H   0  0  0  0  0  0  0  0  0  0  0  0
    3.3110  -24.1966  -15.7352 H   0  0  0  0  0  0  0  0  0  0  0  0
  1  5  2  0  0  0  0
  1  3  1  0  0  0  0
  1  2  1  0  0  0  0
  2  6  1  0  0  0  0
  2 11  1  0  0  0  0
  2 12  1  0  0  0  0
  3  4  1  0  0  0  0
  3 13  1  0  0  0  0
  4 14  1  0  0  0  0
  6 10  1  0  0  0  0
  7 10  2  0  0  0  0
  8 10  1  0  0  0  0
  9 10  1  0  0  0  0
M  END
$$$$
