PGH
 OpenBabel04041917013D

 14 13  0  0  0  0  0  0  0  0999 V2000
   23.5503   30.2038   18.5110 C   0  0  0  0  0  0  0  0  0  0  0  0
   24.7199   31.1861   18.7008 C   0  0  0  0  0  0  0  0  0  0  0  0
   23.1522   30.1127   17.1849 N   0  0  0  0  0  0  0  0  0  0  0  0
   22.0459   29.3192   16.8358 O   0  0  0  0  0  0  0  0  0  0  0  0
   23.0436   29.5020   19.3868 O   0  0  0  0  0  0  0  0  0  0  0  0
   24.5840   32.0051   19.8357 O   0  0  0  0  0  0  0  0  0  0  0  0
   25.2501   34.0289   21.0997 O   0  0  0  0  0  0  0  0  0  0  0  0
   26.2251   33.5465   18.7759 O   0  0  0  0  0  0  0  0  0  0  0  0
   26.8861   32.0814   20.7620 O   0  0  0  0  0  0  0  0  0  0  0  0
   25.8515   33.0046   20.1550 P   0  0  0  0  0  0  0  0  0  0  0  0
   24.7814   31.8219   17.8134 H   0  0  0  0  0  0  0  0  0  0  0  0
   25.6373   30.5889   18.7548 H   0  0  0  0  0  0  0  0  0  0  0  0
   23.5419   30.7236   16.4808 H   0  0  0  0  0  0  0  0  0  0  0  0
   22.3171   28.4469   17.1747 H   0  0  0  0  0  0  0  0  0  0  0  0
  1  2  1  0  0  0  0
  1  3  1  0  0  0  0
  1  5  2  0  0  0  0
  2  6  1  0  0  0  0
  2 11  1  0  0  0  0
  2 12  1  0  0  0  0
  3  4  1  0  0  0  0
  3 13  1  0  0  0  0
  4 14  1  0  0  0  0
  6 10  1  0  0  0  0
  7 10  1  0  0  0  0
  8 10  1  0  0  0  0
  9 10  2  0  0  0  0
M  END
$$$$
