PI4
 OpenBabel04041914003D

 83 85  0  0  1  0  0  0  0  0999 V2000
    6.1141    2.8131    8.8104 C   0  0  0  0  0  0  0  0  0  0  0  0
    4.2581    3.2524   10.4535 C   0  0  0  0  0  0  0  0  0  0  0  0
    4.1744    4.1404   11.2676 O   0  0  0  0  0  0  0  0  0  0  0  0
    4.7866    3.5017    9.0451 C   0  0  0  0  0  0  0  0  0  0  0  0
    3.8919    1.9563   10.7105 N   0  0  0  0  0  0  0  0  0  0  0  0
    3.2981    1.6144   11.9983 C   0  0  2  0  0  0  0  0  0  0  0  0
    3.9606    0.3647   12.6017 C   0  0  0  0  0  0  0  0  0  0  0  0
    3.9277   -0.7317   12.0668 O   0  0  0  0  0  0  0  0  0  0  0  0
    1.8207    1.3177   11.8594 C   0  0  0  0  0  0  0  0  0  0  0  0
    1.0807    2.5013   11.3045 C   0  0  0  0  0  0  0  0  0  0  0  0
    0.5075    3.3092   12.0044 O   0  0  0  0  0  0  0  0  0  0  0  0
    1.0910    2.6088    9.9441 N   0  0  0  0  0  0  0  0  0  0  0  0
    4.5115    0.5493   13.8417 N   0  0  0  0  0  0  0  0  0  0  0  0
    5.2247   -0.5233   14.5318 C   0  0  1  0  0  0  0  0  0  0  0  0
    6.7431   -0.3150   14.5250 C   0  0  0  0  0  0  0  0  0  0  0  0
    7.2273    0.4357   13.3261 C   0  0  0  0  0  0  0  0  0  0  0  0
    7.3425    1.8267   13.3938 C   0  0  0  0  0  0  0  0  0  0  0  0
    7.6794    2.5586   12.2677 C   0  0  0  0  0  0  0  0  0  0  0  0
    7.4698   -0.2142   12.1181 C   0  0  0  0  0  0  0  0  0  0  0  0
    7.8215    0.5228   10.9862 C   0  0  0  0  0  0  0  0  0  0  0  0
    7.8995    1.9140   11.0606 C   0  0  0  0  0  0  0  0  0  0  0  0
    8.2544    2.6230    9.9392 O   0  0  0  0  0  0  0  0  0  0  0  0
    7.2392    3.5535    9.5257 C   0  0  0  0  0  0  0  0  0  0  0  0
    4.6835   -0.5980   15.9671 C   0  0  2  0  0  0  0  0  0  0  0  0
    5.0885    0.5463   16.7079 O   0  0  0  0  0  0  0  0  0  0  0  0
    5.1714   -1.8456   16.6738 C   0  0  0  0  0  0  0  0  0  0  0  0
    4.3994   -3.0434   16.1753 N   0  3  1  0  0  0  0  0  0  0  0  0
    5.1849   -4.2986   16.4936 C   0  0  1  0  0  0  0  0  0  0  0  0
    4.4159   -5.5106   16.0128 C   0  0  0  0  0  0  0  0  0  0  0  0
    2.9977   -5.5748   16.5597 C   0  0  0  0  0  0  0  0  0  0  0  0
    2.2528   -4.2821   16.2848 C   0  0  0  0  0  0  0  0  0  0  0  0
    3.0273   -3.0848   16.7738 C   0  0  0  0  0  0  0  0  0  0  0  0
    6.5583   -4.2612   15.7999 C   0  0  0  0  0  0  0  0  0  0  0  0
    6.6827   -3.7160   14.7276 O   0  0  0  0  0  0  0  0  0  0  0  0
    8.9589   -4.8515   16.0867 C   0  0  0  0  0  0  0  0  0  0  0  0
    9.4459   -3.4873   15.6121 C   0  0  0  0  0  0  0  0  0  0  0  0
    9.8481   -5.3015   17.2412 C   0  0  0  0  0  0  0  0  0  0  0  0
    9.0907   -5.8643   14.9563 C   0  0  0  0  0  0  0  0  0  0  0  0
    7.5718   -4.7762   16.5617 N   0  0  0  0  0  0  0  0  0  0  0  0
    6.0678    1.7800    9.1612 H   0  0  0  0  0  0  0  0  0  0  0  0
    6.3199    2.7935    7.7342 H   0  0  0  0  0  0  0  0  0  0  0  0
    4.0543    3.1371    8.3210 H   0  0  0  0  0  0  0  0  0  0  0  0
    4.9032    4.5821    8.9216 H   0  0  0  0  0  0  0  0  0  0  0  0
    3.9946    1.2547    9.9937 H   0  0  0  0  0  0  0  0  0  0  0  0
    3.4439    2.4414   12.6992 H   0  0  0  0  0  0  0  0  0  0  0  0
    1.3874    1.0856   12.8365 H   0  0  0  0  0  0  0  0  0  0  0  0
    1.6600    0.4566   11.1984 H   0  0  0  0  0  0  0  0  0  0  0  0
    0.6202    3.3952    9.5105 H   0  0  0  0  0  0  0  0  0  0  0  0
    1.5887    1.9452    9.3751 H   0  0  0  0  0  0  0  0  0  0  0  0
    4.5640    1.4880   14.2250 H   0  0  0  0  0  0  0  0  0  0  0  0
    5.0017   -1.4653   14.0170 H   0  0  0  0  0  0  0  0  0  0  0  0
    7.2394   -1.2878   14.5625 H   0  0  0  0  0  0  0  0  0  0  0  0
    7.0390    0.2313   15.4274 H   0  0  0  0  0  0  0  0  0  0  0  0
    7.1511    2.3515   14.3233 H   0  0  0  0  0  0  0  0  0  0  0  0
    7.7632    3.6367   12.3278 H   0  0  0  0  0  0  0  0  0  0  0  0
    7.3854   -1.2967   12.0567 H   0  0  0  0  0  0  0  0  0  0  0  0
    8.0025    0.0090   10.0472 H   0  0  0  0  0  0  0  0  0  0  0  0
    6.8433    4.1348   10.3688 H   0  0  0  0  0  0  0  0  0  0  0  0
    7.7026    4.2639    8.8262 H   0  0  0  0  0  0  0  0  0  0  0  0
    3.5917   -0.5998   15.9385 H   0  0  0  0  0  0  0  0  0  0  0  0
    4.7151    0.5128   17.6056 H   0  0  0  0  0  0  0  0  0  0  0  0
    5.0116   -1.7882   17.7550 H   0  0  0  0  0  0  0  0  0  0  0  0
    6.2415   -1.9937   16.5046 H   0  0  0  0  0  0  0  0  0  0  0  0
    5.3056   -4.3119   17.5796 H   0  0  0  0  0  0  0  0  0  0  0  0
    4.9562   -6.4057   16.3250 H   0  0  0  0  0  0  0  0  0  0  0  0
    4.3669   -5.4978   14.9181 H   0  0  0  0  0  0  0  0  0  0  0  0
    3.0272   -5.7574   17.6418 H   0  0  0  0  0  0  0  0  0  0  0  0
    2.4623   -6.4092   16.0908 H   0  0  0  0  0  0  0  0  0  0  0  0
    1.2892   -4.2981   16.8028 H   0  0  0  0  0  0  0  0  0  0  0  0
    2.0653   -4.1892   15.2098 H   0  0  0  0  0  0  0  0  0  0  0  0
    2.5092   -2.1692   16.4986 H   0  0  0  0  0  0  0  0  0  0  0  0
    3.1626   -3.1266   17.8551 H   0  0  0  0  0  0  0  0  0  0  0  0
   10.4831   -3.5451   15.2721 H   0  0  0  0  0  0  0  0  0  0  0  0
    9.3745   -2.7548   16.4218 H   0  0  0  0  0  0  0  0  0  0  0  0
    8.8467   -3.1295   14.7732 H   0  0  0  0  0  0  0  0  0  0  0  0
   10.8930   -5.3593   16.9182 H   0  0  0  0  0  0  0  0  0  0  0  0
    9.5364   -6.2888   17.5978 H   0  0  0  0  0  0  0  0  0  0  0  0
    9.7768   -4.5934   18.0736 H   0  0  0  0  0  0  0  0  0  0  0  0
   10.1304   -5.9214   14.6154 H   0  0  0  0  0  0  0  0  0  0  0  0
    8.4623   -5.5778   14.1085 H   0  0  0  0  0  0  0  0  0  0  0  0
    8.7803   -6.8566   15.2994 H   0  0  0  0  0  0  0  0  0  0  0  0
    7.3595   -5.1908   17.4568 H   0  0  0  0  0  0  0  0  0  0  0  0
    4.3418   -2.9789   15.1431 H   0  0  0  0  0  0  0  0  0  0  0  0
  1 23  1  0  0  0  0
  1  4  1  0  0  0  0
  1 40  1  0  0  0  0
  1 41  1  0  0  0  0
  2  4  1  0  0  0  0
  2  5  1  0  0  0  0
  2  3  2  0  0  0  0
  4 42  1  0  0  0  0
  4 43  1  0  0  0  0
  5  6  1  0  0  0  0
  5 44  1  0  0  0  0
  6  9  1  0  0  0  0
  6  7  1  0  0  0  0
  6 45  1  1  0  0  0
  7 13  1  0  0  0  0
  7  8  2  0  0  0  0
  9 10  1  0  0  0  0
  9 46  1  0  0  0  0
  9 47  1  0  0  0  0
 10 12  1  0  0  0  0
 10 11  2  0  0  0  0
 12 48  1  0  0  0  0
 12 49  1  0  0  0  0
 13 14  1  0  0  0  0
 13 50  1  0  0  0  0
 14 24  1  0  0  0  0
 14 15  1  0  0  0  0
 14 51  1  6  0  0  0
 15 16  1  0  0  0  0
 15 52  1  0  0  0  0
 15 53  1  0  0  0  0
 16 19  2  0  0  0  0
 16 17  1  0  0  0  0
 17 18  2  0  0  0  0
 17 54  1  0  0  0  0
 18 21  1  0  0  0  0
 18 55  1  0  0  0  0
 19 20  1  0  0  0  0
 19 56  1  0  0  0  0
 20 21  2  0  0  0  0
 20 57  1  0  0  0  0
 21 22  1  0  0  0  0
 22 23  1  0  0  0  0
 23 58  1  0  0  0  0
 23 59  1  0  0  0  0
 24 26  1  0  0  0  0
 24 25  1  0  0  0  0
 24 60  1  6  0  0  0
 25 61  1  0  0  0  0
 26 27  1  0  0  0  0
 26 62  1  0  0  0  0
 26 63  1  0  0  0  0
 27 32  1  0  0  0  0
 27 28  1  0  0  0  0
 27 83  1  6  0  0  0
 28 33  1  0  0  0  0
 28 29  1  0  0  0  0
 28 64  1  1  0  0  0
 29 30  1  0  0  0  0
 29 65  1  0  0  0  0
 29 66  1  0  0  0  0
 30 31  1  0  0  0  0
 30 67  1  0  0  0  0
 30 68  1  0  0  0  0
 31 32  1  0  0  0  0
 31 69  1  0  0  0  0
 31 70  1  0  0  0  0
 32 71  1  0  0  0  0
 32 72  1  0  0  0  0
 33 39  1  0  0  0  0
 33 34  2  0  0  0  0
 35 39  1  0  0  0  0
 35 38  1  0  0  0  0
 35 37  1  0  0  0  0
 35 36  1  0  0  0  0
 36 73  1  0  0  0  0
 36 74  1  0  0  0  0
 36 75  1  0  0  0  0
 37 76  1  0  0  0  0
 37 77  1  0  0  0  0
 37 78  1  0  0  0  0
 38 79  1  0  0  0  0
 38 80  1  0  0  0  0
 38 81  1  0  0  0  0
 39 82  1  0  0  0  0
M  CHG  1  27   1
M  END
$$$$
