PI5
 OpenBabel04041914003D

103106  0  0  1  0  0  0  0  0999 V2000
    3.9438    3.5683    8.4415 C   0  0  0  0  0  0  0  0  0  0  0  0
    3.3644    2.3774    9.2064 C   0  0  0  0  0  0  0  0  0  0  0  0
    3.5531    4.2005   10.6630 C   0  0  0  0  0  0  0  0  0  0  0  0
    3.5514    4.7801   11.7212 O   0  0  0  0  0  0  0  0  0  0  0  0
    3.8478    4.7905    9.3439 C   0  0  0  0  0  0  0  0  0  0  0  0
    3.2425    2.8582   10.5637 N   0  0  0  0  0  0  0  0  0  0  0  0
    2.8872    2.0897   11.7613 C   0  0  1  0  0  0  0  0  0  0  0  0
    1.6239    1.2614   11.5656 C   0  0  0  0  0  0  0  0  0  0  0  0
    1.2746    0.4567   12.8115 C   0  0  0  0  0  0  0  0  0  0  0  0
    0.4555    2.1840   11.2464 C   0  0  0  0  0  0  0  0  0  0  0  0
    4.0945    1.1974   12.0932 C   0  0  0  0  0  0  0  0  0  0  0  0
    4.2546    0.1063   11.6049 O   0  0  0  0  0  0  0  0  0  0  0  0
    4.9878    1.7379   12.9929 N   0  0  0  0  0  0  0  0  0  0  0  0
    6.2138    1.0334   13.3424 C   0  0  1  0  0  0  0  0  0  0  0  0
    7.4446    1.9035   13.1023 C   0  0  0  0  0  0  0  0  0  0  0  0
    7.5938    2.2981   11.6682 C   0  0  0  0  0  0  0  0  0  0  0  0
    7.8098    1.3327   10.6816 C   0  0  0  0  0  0  0  0  0  0  0  0
    7.5135    3.6426   11.2941 C   0  0  0  0  0  0  0  0  0  0  0  0
    7.9219    1.6996    9.3420 C   0  0  0  0  0  0  0  0  0  0  0  0
    7.6376    4.0115    9.9554 C   0  0  0  0  0  0  0  0  0  0  0  0
    7.8302    3.0371    8.9901 C   0  0  0  0  0  0  0  0  0  0  0  0
    6.1778    0.6274   14.8098 C   0  0  1  0  0  0  0  0  0  0  0  0
    4.9861   -0.2828   15.0726 C   0  0  0  0  0  0  0  0  0  0  0  0
    7.3685   -0.0849   15.1825 O   0  0  0  0  0  0  0  0  0  0  0  0
    7.9467    3.4122    7.6867 O   0  0  0  0  0  0  0  0  0  0  0  0
    5.0128   -0.6770   16.5216 N   0  3  0  0  0  0  0  0  0  0  0  0
    4.7907   -2.1366   16.8264 C   0  0  1  0  0  0  0  0  0  0  0  0
    3.3966   -2.5666   16.3980 C   0  0  0  0  0  0  0  0  0  0  0  0
    3.2419   -4.0515   16.5273 C   0  0  0  0  0  0  0  0  0  0  0  0
    3.1981   -4.6467   17.7870 C   0  0  0  0  0  0  0  0  0  0  0  0
    3.2049   -6.0320   17.9050 C   0  0  0  0  0  0  0  0  0  0  0  0
    3.2734   -4.8605   15.3881 C   0  0  0  0  0  0  0  0  0  0  0  0
    3.2812   -6.2492   15.5148 C   0  0  0  0  0  0  0  0  0  0  0  0
    3.2713   -6.8436   16.7791 C   0  0  0  0  0  0  0  0  0  0  0  0
    3.2965   -8.2094   16.8091 O   0  0  0  0  0  0  0  0  0  0  0  0
    3.8219   -8.8342   17.9898 C   0  0  0  0  0  0  0  0  0  0  0  0
    5.8470   -3.0835   16.2411 C   0  0  0  0  0  0  0  0  0  0  0  0
    6.0952   -3.1424   15.0549 O   0  0  0  0  0  0  0  0  0  0  0  0
    6.4289   -3.8841   17.1737 N   0  0  0  0  0  0  0  0  0  0  0  0
    7.3955   -4.9350   16.8369 C   0  0  2  0  0  0  0  0  0  0  0  0
    7.0873   -6.0118   17.8881 C   0  0  0  0  0  0  0  0  0  0  0  0
    7.2026   -5.7699   19.0722 O   0  0  0  0  0  0  0  0  0  0  0  0
    8.8438   -4.4576   17.0483 C   0  0  2  0  0  0  0  0  0  0  0  0
    9.2134   -3.3206   16.0921 C   0  0  0  0  0  0  0  0  0  0  0  0
    9.8206   -5.6185   16.8642 C   0  0  0  0  0  0  0  0  0  0  0  0
    9.5487   -3.7860   14.6878 C   0  0  0  0  0  0  0  0  0  0  0  0
    6.5676   -7.1748   17.4032 N   0  0  0  0  0  0  0  0  0  0  0  0
    6.2584   -8.2574   18.3202 C   0  0  0  0  0  0  0  0  0  0  0  0
    5.2671   -9.2685   17.7620 C   0  0  0  0  0  0  0  0  0  0  0  0
    4.9951    3.3964    8.1951 H   0  0  0  0  0  0  0  0  0  0  0  0
    3.3996    3.7598    7.5132 H   0  0  0  0  0  0  0  0  0  0  0  0
    4.0318    1.5119    9.1440 H   0  0  0  0  0  0  0  0  0  0  0  0
    2.3871    2.0963    8.7970 H   0  0  0  0  0  0  0  0  0  0  0  0
    3.0477    5.4680    9.0365 H   0  0  0  0  0  0  0  0  0  0  0  0
    4.7870    5.3465    9.3905 H   0  0  0  0  0  0  0  0  0  0  0  0
    2.7368    2.7684   12.6241 H   0  0  0  0  0  0  0  0  0  0  0  0
    1.7697    0.5723   10.7318 H   0  0  0  0  0  0  0  0  0  0  0  0
    0.3630   -0.1254   12.6413 H   0  0  0  0  0  0  0  0  0  0  0  0
    1.1100    1.1235   13.6642 H   0  0  0  0  0  0  0  0  0  0  0  0
    2.0828   -0.2333   13.0567 H   0  0  0  0  0  0  0  0  0  0  0  0
    0.6715    2.7765   10.3552 H   0  0  0  0  0  0  0  0  0  0  0  0
    0.2688    2.8681   12.0817 H   0  0  0  0  0  0  0  0  0  0  0  0
   -0.4498    1.5999   11.0606 H   0  0  0  0  0  0  0  0  0  0  0  0
    4.8300    2.6822   13.3313 H   0  0  0  0  0  0  0  0  0  0  0  0
    6.2963    0.1153   12.7500 H   0  0  0  0  0  0  0  0  0  0  0  0
    8.3419    1.3561   13.4101 H   0  0  0  0  0  0  0  0  0  0  0  0
    7.3648    2.8036   13.7229 H   0  0  0  0  0  0  0  0  0  0  0  0
    7.8813    0.2836   10.9559 H   0  0  0  0  0  0  0  0  0  0  0  0
    7.3517    4.4106   12.0476 H   0  0  0  0  0  0  0  0  0  0  0  0
    8.0932    0.9396    8.5899 H   0  0  0  0  0  0  0  0  0  0  0  0
    7.5687    5.0587    9.6770 H   0  0  0  0  0  0  0  0  0  0  0  0
    6.1006    1.5158   15.4519 H   0  0  0  0  0  0  0  0  0  0  0  0
    5.0433   -1.1848   14.4743 H   0  0  0  0  0  0  0  0  0  0  0  0
    4.0389    0.2277   14.8979 H   0  0  0  0  0  0  0  0  0  0  0  0
    7.4653   -0.8529   14.5805 H   0  0  0  0  0  0  0  0  0  0  0  0
    7.2567    2.9523    7.1811 H   0  0  0  0  0  0  0  0  0  0  0  0
    5.9396   -0.3998   16.8979 H   0  0  0  0  0  0  0  0  0  0  0  0
    4.8653   -2.1818   17.9166 H   0  0  0  0  0  0  0  0  0  0  0  0
    3.2078   -2.2680   15.3605 H   0  0  0  0  0  0  0  0  0  0  0  0
    2.6600   -2.0674   17.0339 H   0  0  0  0  0  0  0  0  0  0  0  0
    3.1700   -4.0471   18.6888 H   0  0  0  0  0  0  0  0  0  0  0  0
    3.1579   -6.4608   18.8946 H   0  0  0  0  0  0  0  0  0  0  0  0
    3.3106   -4.4126   14.3947 H   0  0  0  0  0  0  0  0  0  0  0  0
    3.3129   -6.8647   14.6178 H   0  0  0  0  0  0  0  0  0  0  0  0
    3.2100   -9.7222   18.1911 H   0  0  0  0  0  0  0  0  0  0  0  0
    3.7615   -8.2122   18.8823 H   0  0  0  0  0  0  0  0  0  0  0  0
    6.1576   -3.8150   18.1511 H   0  0  0  0  0  0  0  0  0  0  0  0
    7.2462   -5.2922   15.8135 H   0  0  0  0  0  0  0  0  0  0  0  0
    8.9532   -4.0823   18.0756 H   0  0  0  0  0  0  0  0  0  0  0  0
   10.0813   -2.7855   16.4894 H   0  0  0  0  0  0  0  0  0  0  0  0
    8.3866   -2.6177   16.0273 H   0  0  0  0  0  0  0  0  0  0  0  0
    9.5897   -6.4372   17.5436 H   0  0  0  0  0  0  0  0  0  0  0  0
   10.8480   -5.2874   17.0491 H   0  0  0  0  0  0  0  0  0  0  0  0
    9.7579   -6.0130   15.8446 H   0  0  0  0  0  0  0  0  0  0  0  0
    9.7970   -2.9299   14.0619 H   0  0  0  0  0  0  0  0  0  0  0  0
    8.7002   -4.3185   14.2519 H   0  0  0  0  0  0  0  0  0  0  0  0
   10.4179   -4.4504   14.7013 H   0  0  0  0  0  0  0  0  0  0  0  0
    6.4470   -7.2968   16.4035 H   0  0  0  0  0  0  0  0  0  0  0  0
    7.2006   -8.7631   18.5565 H   0  0  0  0  0  0  0  0  0  0  0  0
    5.8677   -7.8147   19.2415 H   0  0  0  0  0  0  0  0  0  0  0  0
    5.4481   -9.4218   16.6972 H   0  0  0  0  0  0  0  0  0  0  0  0
    5.4315  -10.2157   18.2941 H   0  0  0  0  0  0  0  0  0  0  0  0
    4.3044   -0.1212   17.0202 H   0  0  0  0  0  0  0  0  0  0  0  0
  1  5  1  0  0  0  0
  1  2  1  0  0  0  0
  1 50  1  0  0  0  0
  1 51  1  0  0  0  0
  2  6  1  0  0  0  0
  2 52  1  0  0  0  0
  2 53  1  0  0  0  0
  3  6  1  0  0  0  0
  3  5  1  0  0  0  0
  3  4  2  0  0  0  0
  5 54  1  0  0  0  0
  5 55  1  0  0  0  0
  6  7  1  0  0  0  0
  7 11  1  0  0  0  0
  7  8  1  0  0  0  0
  7 56  1  1  0  0  0
  8 10  1  0  0  0  0
  8  9  1  0  0  0  0
  8 57  1  0  0  0  0
  9 58  1  0  0  0  0
  9 59  1  0  0  0  0
  9 60  1  0  0  0  0
 10 61  1  0  0  0  0
 10 62  1  0  0  0  0
 10 63  1  0  0  0  0
 11 13  1  0  0  0  0
 11 12  2  0  0  0  0
 13 14  1  0  0  0  0
 13 64  1  0  0  0  0
 14 22  1  0  0  0  0
 14 15  1  0  0  0  0
 14 65  1  6  0  0  0
 15 16  1  0  0  0  0
 15 66  1  0  0  0  0
 15 67  1  0  0  0  0
 16 18  2  0  0  0  0
 16 17  1  0  0  0  0
 17 19  2  0  0  0  0
 17 68  1  0  0  0  0
 18 20  1  0  0  0  0
 18 69  1  0  0  0  0
 19 21  1  0  0  0  0
 19 70  1  0  0  0  0
 20 21  2  0  0  0  0
 20 71  1  0  0  0  0
 21 25  1  0  0  0  0
 22 24  1  0  0  0  0
 22 23  1  0  0  0  0
 22 72  1  1  0  0  0
 23 26  1  0  0  0  0
 23 73  1  0  0  0  0
 23 74  1  0  0  0  0
 24 75  1  0  0  0  0
 25 76  1  0  0  0  0
 26 27  1  0  0  0  0
 26 77  1  0  0  0  0
 26103  1  0  0  0  0
 27 37  1  0  0  0  0
 27 28  1  0  0  0  0
 27 78  1  1  0  0  0
 28 29  1  0  0  0  0
 28 79  1  0  0  0  0
 28 80  1  0  0  0  0
 29 32  2  0  0  0  0
 29 30  1  0  0  0  0
 30 31  2  0  0  0  0
 30 81  1  0  0  0  0
 31 34  1  0  0  0  0
 31 82  1  0  0  0  0
 32 33  1  0  0  0  0
 32 83  1  0  0  0  0
 33 34  2  0  0  0  0
 33 84  1  0  0  0  0
 34 35  1  0  0  0  0
 35 36  1  0  0  0  0
 36 49  1  0  0  0  0
 36 85  1  0  0  0  0
 36 86  1  0  0  0  0
 37 39  1  0  0  0  0
 37 38  2  0  0  0  0
 39 40  1  0  0  0  0
 39 87  1  0  0  0  0
 40 41  1  0  0  0  0
 40 43  1  0  0  0  0
 40 88  1  6  0  0  0
 41 47  1  0  0  0  0
 41 42  2  0  0  0  0
 43 45  1  0  0  0  0
 43 44  1  0  0  0  0
 43 89  1  1  0  0  0
 44 46  1  0  0  0  0
 44 90  1  0  0  0  0
 44 91  1  0  0  0  0
 45 92  1  0  0  0  0
 45 93  1  0  0  0  0
 45 94  1  0  0  0  0
 46 95  1  0  0  0  0
 46 96  1  0  0  0  0
 46 97  1  0  0  0  0
 47 48  1  0  0  0  0
 47 98  1  0  0  0  0
 48 49  1  0  0  0  0
 48 99  1  0  0  0  0
 48100  1  0  0  0  0
 49101  1  0  0  0  0
 49102  1  0  0  0  0
M  CHG  1  26   1
M  END
$$$$
