PI9
 OpenBabel04041914163D

 91 93  0  0  1  0  0  0  0  0999 V2000
    5.1478    4.3263    9.0783 C   0  0  0  0  0  0  0  0  0  0  0  0
    3.6702    4.2740    9.3935 C   0  0  0  0  0  0  0  0  0  0  0  0
    3.4113    3.6416   10.7435 C   0  0  0  0  0  0  0  0  0  0  0  0
    3.3364    4.3223   11.7571 O   0  0  0  0  0  0  0  0  0  0  0  0
    5.4712    3.2394    8.0709 C   0  0  0  0  0  0  0  0  0  0  0  0
    6.7719    3.5097    7.3364 C   0  0  0  0  0  0  0  0  0  0  0  0
    3.2899    2.2761   10.7611 N   0  0  0  0  0  0  0  0  0  0  0  0
    2.9798    1.5799   12.0125 C   0  0  1  0  0  0  0  0  0  0  0  0
    1.6382    0.8382   11.9025 C   0  0  0  0  0  0  0  0  0  0  0  0
    1.4015   -0.0284   13.1356 C   0  0  0  0  0  0  0  0  0  0  0  0
    0.4936    1.8367   11.7611 C   0  0  0  0  0  0  0  0  0  0  0  0
    4.0827    0.5856   12.4371 C   0  0  0  0  0  0  0  0  0  0  0  0
    4.2784   -0.4652   11.8464 O   0  0  0  0  0  0  0  0  0  0  0  0
    4.7641    0.9333   13.5773 N   0  0  0  0  0  0  0  0  0  0  0  0
    5.8302    0.0855   14.1167 C   0  0  1  0  0  0  0  0  0  0  0  0
    7.1719    0.8261   14.0765 C   0  0  0  0  0  0  0  0  0  0  0  0
    7.5080    1.3878   12.7284 C   0  0  0  0  0  0  0  0  0  0  0  0
    7.4479    2.7664   12.5181 C   0  0  0  0  0  0  0  0  0  0  0  0
    7.7455    3.2962   11.2788 C   0  0  0  0  0  0  0  0  0  0  0  0
    7.8670    0.5530   11.6674 C   0  0  0  0  0  0  0  0  0  0  0  0
    8.1571    1.0878   10.4137 C   0  0  0  0  0  0  0  0  0  0  0  0
    8.0852    2.4600   10.2212 C   0  0  0  0  0  0  0  0  0  0  0  0
    8.4088    3.0936    9.0558 O   0  0  0  0  0  0  0  0  0  0  0  0
    7.8580    2.5701    7.8463 C   0  0  0  0  0  0  0  0  0  0  0  0
    5.4859   -0.3513   15.5550 C   0  0  2  0  0  0  0  0  0  0  0  0
    5.5074    0.7911   16.4382 O   0  0  0  0  0  0  0  0  0  0  0  0
    6.4733   -1.3999   16.0878 C   0  0  0  0  0  0  0  0  0  0  0  0
    6.2836   -2.7046   15.4669 N   0  0  0  0  0  0  0  0  0  0  0  0
    5.4173   -3.6278   16.2064 C   0  0  0  0  0  0  0  0  0  0  0  0
    4.1386   -3.7212   15.3976 C   0  0  0  0  0  0  0  0  0  0  0  0
    3.1801   -4.7965   15.8794 C   0  0  0  0  0  0  0  0  0  0  0  0
    2.7917   -4.5210   17.3213 C   0  0  0  0  0  0  0  0  0  0  0  0
    1.9529   -4.8417   14.9751 C   0  0  0  0  0  0  0  0  0  0  0  0
    7.4405   -3.3043   14.4726 S   0  0  0  0  0  0  0  0  0  0  0  0
    8.2177   -2.2066   13.8941 O   0  0  0  0  0  0  0  0  0  0  0  0
    6.8556   -4.2352   13.5105 O   0  0  0  0  0  0  0  0  0  0  0  0
    8.5257   -4.2072   15.4830 C   0  0  0  0  0  0  0  0  0  0  0  0
    9.5710   -3.5336   16.0865 C   0  0  0  0  0  0  0  0  0  0  0  0
    8.3121   -5.5592   15.7000 C   0  0  0  0  0  0  0  0  0  0  0  0
   10.3989   -4.2080   16.9728 C   0  0  0  0  0  0  0  0  0  0  0  0
    9.1401   -6.2353   16.6016 C   0  0  0  0  0  0  0  0  0  0  0  0
   10.1718   -5.5544   17.2436 C   0  0  0  0  0  0  0  0  0  0  0  0
   10.9754   -6.1880   18.1690 N   0  0  0  0  0  0  0  0  0  0  0  0
    5.3989    5.3065    8.6556 H   0  0  0  0  0  0  0  0  0  0  0  0
    5.7342    4.1764    9.9828 H   0  0  0  0  0  0  0  0  0  0  0  0
    3.1365    3.7201    8.6163 H   0  0  0  0  0  0  0  0  0  0  0  0
    3.2794    5.2957    9.4196 H   0  0  0  0  0  0  0  0  0  0  0  0
    4.6597    3.1807    7.3361 H   0  0  0  0  0  0  0  0  0  0  0  0
    5.5282    2.2830    8.6003 H   0  0  0  0  0  0  0  0  0  0  0  0
    6.6057    3.3330    6.2663 H   0  0  0  0  0  0  0  0  0  0  0  0
    7.0712    4.5537    7.4797 H   0  0  0  0  0  0  0  0  0  0  0  0
    3.4073    1.7505    9.9050 H   0  0  0  0  0  0  0  0  0  0  0  0
    2.8940    2.3291   12.8037 H   0  0  0  0  0  0  0  0  0  0  0  0
    1.6440    0.1872   11.0195 H   0  0  0  0  0  0  0  0  0  0  0  0
    0.4437   -0.5487   13.0594 H   0  0  0  0  0  0  0  0  0  0  0  0
    1.4053    0.5913   14.0391 H   0  0  0  0  0  0  0  0  0  0  0  0
    2.1910   -0.7816   13.2259 H   0  0  0  0  0  0  0  0  0  0  0  0
    0.6468    2.4615   10.8760 H   0  0  0  0  0  0  0  0  0  0  0  0
    0.4429    2.4850   12.6444 H   0  0  0  0  0  0  0  0  0  0  0  0
   -0.4617    1.3113   11.6557 H   0  0  0  0  0  0  0  0  0  0  0  0
    4.5568    1.8185   14.0159 H   0  0  0  0  0  0  0  0  0  0  0  0
    5.9075   -0.8177   13.5066 H   0  0  0  0  0  0  0  0  0  0  0  0
    7.9744    0.1485   14.3753 H   0  0  0  0  0  0  0  0  0  0  0  0
    7.1561    1.6489   14.8009 H   0  0  0  0  0  0  0  0  0  0  0  0
    7.1553    3.4304   13.3229 H   0  0  0  0  0  0  0  0  0  0  0  0
    7.6850    4.3691   11.1277 H   0  0  0  0  0  0  0  0  0  0  0  0
    7.9203   -0.5191   11.8103 H   0  0  0  0  0  0  0  0  0  0  0  0
    8.4412    0.4339    9.6004 H   0  0  0  0  0  0  0  0  0  0  0  0
    7.4469    1.5651    7.9678 H   0  0  0  0  0  0  0  0  0  0  0  0
    8.6590    2.5396    7.1005 H   0  0  0  0  0  0  0  0  0  0  0  0
    4.4666   -0.7536   15.5783 H   0  0  0  0  0  0  0  0  0  0  0  0
    6.4127    1.1487   16.4461 H   0  0  0  0  0  0  0  0  0  0  0  0
    6.3501   -1.4882   17.1686 H   0  0  0  0  0  0  0  0  0  0  0  0
    7.4891   -1.0566   15.9093 H   0  0  0  0  0  0  0  0  0  0  0  0
    5.2199   -3.2364   17.2165 H   0  0  0  0  0  0  0  0  0  0  0  0
    5.8815   -4.6115   16.3286 H   0  0  0  0  0  0  0  0  0  0  0  0
    4.4093   -3.9231   14.3569 H   0  0  0  0  0  0  0  0  0  0  0  0
    3.6393   -2.7458   15.4361 H   0  0  0  0  0  0  0  0  0  0  0  0
    3.6742   -5.7720   15.8264 H   0  0  0  0  0  0  0  0  0  0  0  0
    2.0955   -5.2807   17.6813 H   0  0  0  0  0  0  0  0  0  0  0  0
    2.3250   -3.5329   17.4091 H   0  0  0  0  0  0  0  0  0  0  0  0
    3.6840   -4.5427   17.9559 H   0  0  0  0  0  0  0  0  0  0  0  0
    2.2548   -5.0434   13.9395 H   0  0  0  0  0  0  0  0  0  0  0  0
    1.4162   -3.8858   15.0022 H   0  0  0  0  0  0  0  0  0  0  0  0
    1.2719   -5.6370   15.2991 H   0  0  0  0  0  0  0  0  0  0  0  0
    9.7421   -2.4809   15.8838 H   0  0  0  0  0  0  0  0  0  0  0  0
    7.4988   -6.0812   15.1983 H   0  0  0  0  0  0  0  0  0  0  0  0
   11.1963   -3.6812   17.4654 H   0  0  0  0  0  0  0  0  0  0  0  0
    8.9600   -7.2794   16.7995 H   0  0  0  0  0  0  0  0  0  0  0  0
   11.7243   -5.6728   18.6109 H   0  0  0  0  0  0  0  0  0  0  0  0
   10.8179   -7.1536   18.3992 H   0  0  0  0  0  0  0  0  0  0  0  0
  1  5  1  0  0  0  0
  1  2  1  0  0  0  0
  1 44  1  0  0  0  0
  1 45  1  0  0  0  0
  2  3  1  0  0  0  0
  2 46  1  0  0  0  0
  2 47  1  0  0  0  0
  3  7  1  0  0  0  0
  3  4  2  0  0  0  0
  5  6  1  0  0  0  0
  5 48  1  0  0  0  0
  5 49  1  0  0  0  0
  6 24  1  0  0  0  0
  6 50  1  0  0  0  0
  6 51  1  0  0  0  0
  7  8  1  0  0  0  0
  7 52  1  0  0  0  0
  8 12  1  0  0  0  0
  8  9  1  0  0  0  0
  8 53  1  1  0  0  0
  9 11  1  0  0  0  0
  9 10  1  0  0  0  0
  9 54  1  0  0  0  0
 10 55  1  0  0  0  0
 10 56  1  0  0  0  0
 10 57  1  0  0  0  0
 11 58  1  0  0  0  0
 11 59  1  0  0  0  0
 11 60  1  0  0  0  0
 12 14  1  0  0  0  0
 12 13  2  0  0  0  0
 14 15  1  0  0  0  0
 14 61  1  0  0  0  0
 15 25  1  0  0  0  0
 15 16  1  0  0  0  0
 15 62  1  6  0  0  0
 16 17  1  0  0  0  0
 16 63  1  0  0  0  0
 16 64  1  0  0  0  0
 17 20  2  0  0  0  0
 17 18  1  0  0  0  0
 18 19  2  0  0  0  0
 18 65  1  0  0  0  0
 19 22  1  0  0  0  0
 19 66  1  0  0  0  0
 20 21  1  0  0  0  0
 20 67  1  0  0  0  0
 21 22  2  0  0  0  0
 21 68  1  0  0  0  0
 22 23  1  0  0  0  0
 23 24  1  0  0  0  0
 24 69  1  0  0  0  0
 24 70  1  0  0  0  0
 25 27  1  0  0  0  0
 25 26  1  0  0  0  0
 25 71  1  1  0  0  0
 26 72  1  0  0  0  0
 27 28  1  0  0  0  0
 27 73  1  0  0  0  0
 27 74  1  0  0  0  0
 28 34  1  0  0  0  0
 28 29  1  0  0  0  0
 29 30  1  0  0  0  0
 29 75  1  0  0  0  0
 29 76  1  0  0  0  0
 30 31  1  0  0  0  0
 30 77  1  0  0  0  0
 30 78  1  0  0  0  0
 31 33  1  0  0  0  0
 31 32  1  0  0  0  0
 31 79  1  0  0  0  0
 32 80  1  0  0  0  0
 32 81  1  0  0  0  0
 32 82  1  0  0  0  0
 33 83  1  0  0  0  0
 33 84  1  0  0  0  0
 33 85  1  0  0  0  0
 34 37  1  0  0  0  0
 34 36  2  0  0  0  0
 34 35  2  0  0  0  0
 37 39  2  0  0  0  0
 37 38  1  0  0  0  0
 38 40  2  0  0  0  0
 38 86  1  0  0  0  0
 39 41  1  0  0  0  0
 39 87  1  0  0  0  0
 40 42  1  0  0  0  0
 40 88  1  0  0  0  0
 41 42  2  0  0  0  0
 41 89  1  0  0  0  0
 42 43  1  0  0  0  0
 43 90  1  0  0  0  0
 43 91  1  0  0  0  0
M  END
$$$$
