PIB
 OpenBabel04041914543D

 64 64  0  0  1  0  0  0  0  0999 V2000
   10.9729   20.3320    5.6567 C   0  0  2  0  0  0  0  0  0  0  0  0
   11.8724   19.2191    5.0624 C   0  0  1  0  0  0  0  0  0  0  0  0
   11.9863   17.9761    6.0047 C   0  0  1  0  0  0  0  0  0  0  0  0
   10.5646   17.4196    6.2930 C   0  0  2  0  0  0  0  0  0  0  0  0
    9.6777   18.5222    6.9110 C   0  0  1  0  0  0  0  0  0  0  0  0
    9.5747   19.7430    5.9784 C   0  0  1  0  0  0  0  0  0  0  0  0
   10.7856   21.3901    4.6944 O   0  0  0  0  0  0  0  0  0  0  0  0
   11.2874   18.8212    3.7914 O   0  0  0  0  0  0  0  0  0  0  0  0
   12.8064   17.0018    5.3519 O   0  0  0  0  0  0  0  0  0  0  0  0
   10.5506   16.3009    7.1907 O   0  0  0  0  0  0  0  0  0  0  0  0
    8.3429   18.0194    7.1771 O   0  0  0  0  0  0  0  0  0  0  0  0
    8.7043   20.7242    6.6039 O   0  0  0  0  0  0  0  0  0  0  0  0
   11.7685   22.6859    4.6296 P   0  0  2  0  0  0  0  0  0  0  0  0
   11.7247   23.2124    3.2116 O   0  0  0  0  0  0  0  0  0  0  0  0
   13.0483   22.4076    5.3334 O   0  0  0  0  0  0  0  0  0  0  0  0
   10.9147   23.7023    5.5919 O   0  0  0  0  0  0  0  0  0  0  0  0
   13.8040   16.0128    6.2022 P   0  0  0  0  0  0  0  0  0  0  0  0
   12.8420   15.0958    6.9256 O   0  0  0  0  0  0  0  0  0  0  0  0
   14.6304   16.9311    7.0859 O   0  0  0  0  0  0  0  0  0  0  0  0
   14.6113   15.3094    5.1049 O   0  0  0  0  0  0  0  0  0  0  0  0
    9.9437   24.5634    5.0142 C   0  0  0  0  0  0  0  0  0  0  0  0
   10.5492   25.9726    4.8088 C   0  0  2  0  0  0  0  0  0  0  0  0
   10.3144   26.8537    6.0816 C   0  0  0  0  0  0  0  0  0  0  0  0
    9.2025   28.8506    6.8348 C   0  0  0  0  0  0  0  0  0  0  0  0
    8.9367   30.3081    6.4445 C   0  0  0  0  0  0  0  0  0  0  0  0
    9.1336   31.3002    7.5977 C   0  0  0  0  0  0  0  0  0  0  0  0
    9.1134   32.7567    7.1295 C   0  0  0  0  0  0  0  0  0  0  0  0
   10.8943   26.6951    2.5489 C   0  0  0  0  0  0  0  0  0  0  0  0
   10.3434   27.6246    1.4855 C   0  0  0  0  0  0  0  0  0  0  0  0
   10.9471   29.0249    1.6184 C   0  0  0  0  0  0  0  0  0  0  0  0
   10.0040   29.9726    2.3416 C   0  0  0  0  0  0  0  0  0  0  0  0
   10.0316   26.6163    3.6145 O   0  0  0  0  0  0  0  0  0  0  0  0
    9.8627   28.2080    5.8188 O   0  0  0  0  0  0  0  0  0  0  0  0
    8.8495   28.3450    7.9049 O   0  0  0  0  0  0  0  0  0  0  0  0
   12.0282   26.2452    2.4808 O   0  0  0  0  0  0  0  0  0  0  0  0
   11.4116   20.7380    6.5735 H   0  0  0  0  0  0  0  0  0  0  0  0
   12.8669   19.6197    4.8383 H   0  0  0  0  0  0  0  0  0  0  0  0
   12.4556   18.2860    6.9469 H   0  0  0  0  0  0  0  0  0  0  0  0
   10.0916   17.0598    5.3729 H   0  0  0  0  0  0  0  0  0  0  0  0
   10.0752   18.8296    7.8887 H   0  0  0  0  0  0  0  0  0  0  0  0
    9.0533   19.4513    5.0567 H   0  0  0  0  0  0  0  0  0  0  0  0
   11.3160   19.6194    3.2346 H   0  0  0  0  0  0  0  0  0  0  0  0
   11.2805   15.6872    6.8814 H   0  0  0  0  0  0  0  0  0  0  0  0
    7.8486   18.7574    7.5663 H   0  0  0  0  0  0  0  0  0  0  0  0
    9.1875   21.0573    7.3769 H   0  0  0  0  0  0  0  0  0  0  0  0
    9.0998   24.6069    5.7157 H   0  0  0  0  0  0  0  0  0  0  0  0
    9.5392   24.1473    4.0890 H   0  0  0  0  0  0  0  0  0  0  0  0
   11.6326   25.8473    4.7195 H   0  0  0  0  0  0  0  0  0  0  0  0
   11.2761   26.9397    6.6069 H   0  0  0  0  0  0  0  0  0  0  0  0
    9.6255   26.3690    6.7772 H   0  0  0  0  0  0  0  0  0  0  0  0
    7.9189   30.4049    6.0499 H   0  0  0  0  0  0  0  0  0  0  0  0
    9.6302   30.5747    5.6373 H   0  0  0  0  0  0  0  0  0  0  0  0
   10.0888   31.1097    8.0992 H   0  0  0  0  0  0  0  0  0  0  0  0
    8.3433   31.1680    8.3456 H   0  0  0  0  0  0  0  0  0  0  0  0
    9.2585   33.4378    7.9767 H   0  0  0  0  0  0  0  0  0  0  0  0
    8.1579   33.0103    6.6586 H   0  0  0  0  0  0  0  0  0  0  0  0
    9.9147   32.9500    6.4084 H   0  0  0  0  0  0  0  0  0  0  0  0
    9.2519   27.6514    1.5393 H   0  0  0  0  0  0  0  0  0  0  0  0
   10.6001   27.2123    0.5006 H   0  0  0  0  0  0  0  0  0  0  0  0
   11.1444   29.4362    0.6209 H   0  0  0  0  0  0  0  0  0  0  0  0
   11.9047   28.9946    2.1521 H   0  0  0  0  0  0  0  0  0  0  0  0
   10.4469   30.9703    2.4210 H   0  0  0  0  0  0  0  0  0  0  0  0
    9.7909   29.6088    3.3493 H   0  0  0  0  0  0  0  0  0  0  0  0
    9.0566   30.0665    1.8003 H   0  0  0  0  0  0  0  0  0  0  0  0
  1  7  1  0  0  0  0
  1  6  1  0  0  0  0
  1  2  1  0  0  0  0
  1 36  1  1  0  0  0
  2  8  1  0  0  0  0
  2  3  1  0  0  0  0
  2 37  1  6  0  0  0
  3  9  1  0  0  0  0
  3  4  1  0  0  0  0
  3 38  1  1  0  0  0
  4 10  1  0  0  0  0
  4  5  1  0  0  0  0
  4 39  1  6  0  0  0
  5 11  1  0  0  0  0
  5  6  1  0  0  0  0
  5 40  1  1  0  0  0
  6 12  1  0  0  0  0
  6 41  1  6  0  0  0
  8 42  1  0  0  0  0
  9 17  1  0  0  0  0
 10 43  1  0  0  0  0
 11 44  1  0  0  0  0
 12 45  1  0  0  0  0
 13  7  1  6  0  0  0
 13 16  1  0  0  0  0
 13 15  2  0  0  0  0
 13 14  1  0  0  0  0
 16 21  1  0  0  0  0
 17 20  2  0  0  0  0
 17 19  1  0  0  0  0
 17 18  1  0  0  0  0
 21 22  1  0  0  0  0
 21 46  1  0  0  0  0
 21 47  1  0  0  0  0
 22 32  1  0  0  0  0
 22 23  1  0  0  0  0
 22 48  1  6  0  0  0
 23 33  1  0  0  0  0
 23 49  1  0  0  0  0
 23 50  1  0  0  0  0
 24 33  1  0  0  0  0
 24 34  2  0  0  0  0
 24 25  1  0  0  0  0
 25 26  1  0  0  0  0
 25 51  1  0  0  0  0
 25 52  1  0  0  0  0
 26 27  1  0  0  0  0
 26 53  1  0  0  0  0
 26 54  1  0  0  0  0
 27 55  1  0  0  0  0
 27 56  1  0  0  0  0
 27 57  1  0  0  0  0
 28 32  1  0  0  0  0
 28 35  2  0  0  0  0
 28 29  1  0  0  0  0
 29 30  1  0  0  0  0
 29 58  1  0  0  0  0
 29 59  1  0  0  0  0
 30 31  1  0  0  0  0
 30 60  1  0  0  0  0
 30 61  1  0  0  0  0
 31 62  1  0  0  0  0
 31 63  1  0  0  0  0
 31 64  1  0  0  0  0
M  END
$$$$
