PMP
 OpenBabel04041917563D

 28 28  0  0  0  0  0  0  0  0999 V2000
   17.1288   52.9494   13.7307 N   0  0  0  0  0  0  0  0  0  0  0  0
   16.0775   53.1711   14.5555 C   0  0  0  0  0  0  0  0  0  0  0  0
   15.0028   54.0677   14.0112 C   0  0  0  0  0  0  0  0  0  0  0  0
   16.0242   52.5834   15.8240 C   0  0  0  0  0  0  0  0  0  0  0  0
   14.9820   52.7970   16.6891 O   0  0  0  0  0  0  0  0  0  0  0  0
   17.0600   51.7408   16.2637 C   0  0  0  0  0  0  0  0  0  0  0  0
   17.0017   51.1217   17.6266 C   0  0  0  0  0  0  0  0  0  0  0  0
   15.8959   50.1579   17.7348 N   0  3  0  0  0  0  0  0  0  0  0  0
   18.1548   51.5050   15.4057 C   0  0  0  0  0  0  0  0  0  0  0  0
   18.1177   52.1201   14.1634 C   0  0  0  0  0  0  0  0  0  0  0  0
   19.3113   50.6025   15.7694 C   0  0  0  0  0  0  0  0  0  0  0  0
   18.8818   49.2675   15.6288 O   0  0  0  0  0  0  0  0  0  0  0  0
   19.8424   48.1844   16.4057 P   0  0  0  0  0  0  0  0  0  0  0  0
   19.2379   46.8571   16.0245 O   0  0  0  0  0  0  0  0  0  0  0  0
   21.2365   48.5038   15.8834 O   0  0  0  0  0  0  0  0  0  0  0  0
   19.5742   48.5957   17.8626 O   0  0  0  0  0  0  0  0  0  0  0  0
   14.1614   54.1983   14.6956 H   0  0  0  0  0  0  0  0  0  0  0  0
   14.6039   53.6570   13.0754 H   0  0  0  0  0  0  0  0  0  0  0  0
   15.4187   55.0601   13.8001 H   0  0  0  0  0  0  0  0  0  0  0  0
   14.7793   53.7485   16.6545 H   0  0  0  0  0  0  0  0  0  0  0  0
   16.8212   51.9057   18.3733 H   0  0  0  0  0  0  0  0  0  0  0  0
   17.8986   50.5854   17.9356 H   0  0  0  0  0  0  0  0  0  0  0  0
   15.8883   49.7342   18.6649 H   0  0  0  0  0  0  0  0  0  0  0  0
   15.0055   50.6188   17.5127 H   0  0  0  0  0  0  0  0  0  0  0  0
   18.9257   51.9574   13.4474 H   0  0  0  0  0  0  0  0  0  0  0  0
   19.6354   50.8176   16.7923 H   0  0  0  0  0  0  0  0  0  0  0  0
   20.1773   50.7947   15.1266 H   0  0  0  0  0  0  0  0  0  0  0  0
   16.0887   49.4019   17.0629 H   0  0  0  0  0  0  0  0  0  0  0  0
  1  2  2  0  0  0  0
  1 10  1  0  0  0  0
  2  3  1  0  0  0  0
  2  4  1  0  0  0  0
  3 17  1  0  0  0  0
  3 18  1  0  0  0  0
  3 19  1  0  0  0  0
  4  5  1  0  0  0  0
  4  6  2  0  0  0  0
  5 20  1  0  0  0  0
  6  7  1  0  0  0  0
  6  9  1  0  0  0  0
  7  8  1  0  0  0  0
  7 21  1  0  0  0  0
  7 22  1  0  0  0  0
  8 23  1  0  0  0  0
  8 24  1  0  0  0  0
  8 28  1  0  0  0  0
  9 10  2  0  0  0  0
  9 11  1  0  0  0  0
 10 25  1  0  0  0  0
 11 12  1  0  0  0  0
 11 26  1  0  0  0  0
 11 27  1  0  0  0  0
 12 13  1  0  0  0  0
 13 14  2  0  0  0  0
 13 15  1  0  0  0  0
 13 16  1  0  0  0  0
M  CHG  1   8   1
M  END
$$$$
