PP7
 OpenBabel04041914063D

 90 91  0  0  1  0  0  0  0  0999 V2000
   18.0638    5.3154   18.3867 N   0  0  0  0  0  0  0  0  0  0  0  0
   16.1050    4.0588   17.7052 C   0  0  0  0  0  0  0  0  0  0  0  0
   19.2902    5.5863   19.1429 C   0  0  1  0  0  0  0  0  0  0  0  0
   14.8377    3.8429   18.5309 C   0  0  0  0  0  0  0  0  0  0  0  0
   20.5370    5.5095   18.2402 C   0  0  0  0  0  0  0  0  0  0  0  0
   14.6694    4.9440   19.5664 C   0  0  0  0  0  0  0  0  0  0  0  0
   20.6814    4.1162   17.6303 C   0  0  0  0  0  0  0  0  0  0  0  0
   13.6317    3.7713   17.5952 C   0  0  0  0  0  0  0  0  0  0  0  0
   20.5278    6.5797   17.1515 C   0  0  0  0  0  0  0  0  0  0  0  0
   17.3425    4.1656   18.5654 C   0  0  0  0  0  0  0  0  0  0  0  0
   19.1678    6.9444   19.8406 C   0  0  0  0  0  0  0  0  0  0  0  0
   17.6770    3.2694   19.3315 O   0  0  0  0  0  0  0  0  0  0  0  0
   18.3251    7.7872   19.5287 O   0  0  0  0  0  0  0  0  0  0  0  0
   20.1284    7.1729   20.8113 N   0  0  0  0  0  0  0  0  0  0  0  0
   20.1036    8.3540   21.6783 C   0  0  1  0  0  0  0  0  0  0  0  0
   19.3761    8.0118   22.9728 C   0  0  0  0  0  0  0  0  0  0  0  0
   19.2137    9.1048   24.0127 C   0  0  0  0  0  0  0  0  0  0  0  0
   19.0495    8.8013   25.1981 O   0  0  0  0  0  0  0  0  0  0  0  0
   19.0589   10.3880   23.5597 N   0  0  0  0  0  0  0  0  0  0  0  0
   18.6569   11.4644   24.4456 C   0  0  0  0  0  0  0  0  0  0  0  0
   21.5524    8.7519   21.9555 C   0  0  0  0  0  0  0  0  0  0  0  0
   22.1656    8.3114   22.9212 O   0  0  0  0  0  0  0  0  0  0  0  0
   22.1380    9.4611   20.9302 N   0  0  0  0  0  0  0  0  0  0  0  0
   23.5623    9.8212   20.9444 C   0  0  1  0  0  0  0  0  0  0  0  0
   24.2362    9.3258   19.6555 C   0  0  0  0  0  0  0  0  0  0  0  0
   23.9500    7.8565   19.3070 C   0  0  0  0  0  0  0  0  0  0  0  0
   24.5996    7.4888   17.9773 C   0  0  0  0  0  0  0  0  0  0  0  0
   24.4268    6.9145   20.4066 C   0  0  0  0  0  0  0  0  0  0  0  0
   23.7566   11.6901   21.0857 P   0  0  2  0  0  0  0  0  0  0  0  0
   22.7013   12.3007   20.1872 O   0  0  0  0  0  0  0  0  0  0  0  0
   25.2196   12.0383   20.9474 O   0  0  0  0  0  0  0  0  0  0  0  0
   23.3053   11.9264   22.6254 O   0  0  0  0  0  0  0  0  0  0  0  0
   23.9357   12.9504   23.3881 C   0  0  1  0  0  0  0  0  0  0  0  0
   22.9156   14.0591   23.7014 C   0  0  0  0  0  0  0  0  0  0  0  0
   25.5076   12.9870   26.7573 C   0  0  0  0  0  0  0  0  0  0  0  0
   21.7915   13.6347   24.6250 C   0  0  0  0  0  0  0  0  0  0  0  0
   21.7208   14.0952   25.9453 C   0  0  0  0  0  0  0  0  0  0  0  0
   20.8036   12.7623   24.1532 C   0  0  0  0  0  0  0  0  0  0  0  0
   20.6925   13.6675   26.7837 C   0  0  0  0  0  0  0  0  0  0  0  0
   19.7409   12.7606   26.3149 C   0  0  0  0  0  0  0  0  0  0  0  0
   19.7768   12.3110   24.9859 C   0  0  0  0  0  0  0  0  0  0  0  0
   24.5318   12.3932   24.6841 C   0  0  0  0  0  0  0  0  0  0  0  0
   25.0065   13.3987   25.4819 O   0  0  0  0  0  0  0  0  0  0  0  0
   24.5964   11.1967   24.9981 O   0  0  0  0  0  0  0  0  0  0  0  0
   17.7067    6.0631   17.7982 H   0  0  0  0  0  0  0  0  0  0  0  0
   16.2503    3.1903   17.0538 H   0  0  0  0  0  0  0  0  0  0  0  0
   15.9976    4.9448   17.0688 H   0  0  0  0  0  0  0  0  0  0  0  0
   19.4001    4.8299   19.9257 H   0  0  0  0  0  0  0  0  0  0  0  0
   14.9161    2.8943   19.0746 H   0  0  0  0  0  0  0  0  0  0  0  0
   21.4239    5.6811   18.8561 H   0  0  0  0  0  0  0  0  0  0  0  0
   13.7537    4.7840   20.1412 H   0  0  0  0  0  0  0  0  0  0  0  0
   14.6326    5.9295   19.0921 H   0  0  0  0  0  0  0  0  0  0  0  0
   15.5090    4.9302   20.2694 H   0  0  0  0  0  0  0  0  0  0  0  0
   21.5650    4.0668   16.9873 H   0  0  0  0  0  0  0  0  0  0  0  0
   19.8094    3.8423   17.0301 H   0  0  0  0  0  0  0  0  0  0  0  0
   20.7969    3.3736   18.4269 H   0  0  0  0  0  0  0  0  0  0  0  0
   13.7803    2.9840   16.8490 H   0  0  0  0  0  0  0  0  0  0  0  0
   13.4756    4.7150   17.0599 H   0  0  0  0  0  0  0  0  0  0  0  0
   12.7163    3.5417   18.1501 H   0  0  0  0  0  0  0  0  0  0  0  0
   20.4254    7.5734   17.5970 H   0  0  0  0  0  0  0  0  0  0  0  0
   19.7057    6.4311   16.4448 H   0  0  0  0  0  0  0  0  0  0  0  0
   21.4695    6.5642   16.5946 H   0  0  0  0  0  0  0  0  0  0  0  0
   20.8346    6.4597   20.9810 H   0  0  0  0  0  0  0  0  0  0  0  0
   19.5969    9.1651   21.1545 H   0  0  0  0  0  0  0  0  0  0  0  0
   19.8920    7.1843   23.4767 H   0  0  0  0  0  0  0  0  0  0  0  0
   18.3662    7.6645   22.7254 H   0  0  0  0  0  0  0  0  0  0  0  0
   19.2862   10.6329   22.6073 H   0  0  0  0  0  0  0  0  0  0  0  0
   18.0820   11.0495   25.2795 H   0  0  0  0  0  0  0  0  0  0  0  0
   17.9879   12.1138   23.8681 H   0  0  0  0  0  0  0  0  0  0  0  0
   21.5769    9.9041   20.2140 H   0  0  0  0  0  0  0  0  0  0  0  0
   24.0600    9.3916   21.8201 H   0  0  0  0  0  0  0  0  0  0  0  0
   25.3192    9.4761   19.7559 H   0  0  0  0  0  0  0  0  0  0  0  0
   23.9060    9.9544   18.8181 H   0  0  0  0  0  0  0  0  0  0  0  0
   22.8693    7.7257   19.1821 H   0  0  0  0  0  0  0  0  0  0  0  0
   24.3967    6.4418   17.7302 H   0  0  0  0  0  0  0  0  0  0  0  0
   25.6844    7.6319   18.0100 H   0  0  0  0  0  0  0  0  0  0  0  0
   24.1955    8.1086   17.1699 H   0  0  0  0  0  0  0  0  0  0  0  0
   23.9710    7.1671   21.3655 H   0  0  0  0  0  0  0  0  0  0  0  0
   25.5140    6.9612   20.5272 H   0  0  0  0  0  0  0  0  0  0  0  0
   24.1464    5.8823   20.1767 H   0  0  0  0  0  0  0  0  0  0  0  0
   24.7699   13.4010   22.8325 H   0  0  0  0  0  0  0  0  0  0  0  0
   23.4225   14.9252   24.1471 H   0  0  0  0  0  0  0  0  0  0  0  0
   22.4631   14.4105   22.7657 H   0  0  0  0  0  0  0  0  0  0  0  0
   25.8382   13.8911   27.2780 H   0  0  0  0  0  0  0  0  0  0  0  0
   26.3675   12.3198   26.6503 H   0  0  0  0  0  0  0  0  0  0  0  0
   24.7250   12.5160   27.3628 H   0  0  0  0  0  0  0  0  0  0  0  0
   22.4693   14.7823   26.3308 H   0  0  0  0  0  0  0  0  0  0  0  0
   20.8471   12.4265   23.1186 H   0  0  0  0  0  0  0  0  0  0  0  0
   20.6317   14.0413   27.8013 H   0  0  0  0  0  0  0  0  0  0  0  0
   18.9673   12.4057   26.9921 H   0  0  0  0  0  0  0  0  0  0  0  0
  1 10  1  0  0  0  0
  1  3  1  0  0  0  0
  1 45  1  0  0  0  0
  2 10  1  0  0  0  0
  2  4  1  0  0  0  0
  2 46  1  0  0  0  0
  2 47  1  0  0  0  0
  3 11  1  0  0  0  0
  3  5  1  0  0  0  0
  3 48  1  1  0  0  0
  4  6  1  0  0  0  0
  4  8  1  0  0  0  0
  4 49  1  0  0  0  0
  5  9  1  0  0  0  0
  5  7  1  0  0  0  0
  5 50  1  0  0  0  0
  6 51  1  0  0  0  0
  6 52  1  0  0  0  0
  6 53  1  0  0  0  0
  7 54  1  0  0  0  0
  7 55  1  0  0  0  0
  7 56  1  0  0  0  0
  8 57  1  0  0  0  0
  8 58  1  0  0  0  0
  8 59  1  0  0  0  0
  9 60  1  0  0  0  0
  9 61  1  0  0  0  0
  9 62  1  0  0  0  0
 10 12  2  0  0  0  0
 11 14  1  0  0  0  0
 11 13  2  0  0  0  0
 14 15  1  0  0  0  0
 14 63  1  0  0  0  0
 15 21  1  0  0  0  0
 15 16  1  0  0  0  0
 15 64  1  6  0  0  0
 16 17  1  0  0  0  0
 16 65  1  0  0  0  0
 16 66  1  0  0  0  0
 17 19  1  0  0  0  0
 17 18  2  0  0  0  0
 19 20  1  0  0  0  0
 19 67  1  0  0  0  0
 20 41  1  0  0  0  0
 20 68  1  0  0  0  0
 20 69  1  0  0  0  0
 21 23  1  0  0  0  0
 21 22  2  0  0  0  0
 23 24  1  0  0  0  0
 23 70  1  0  0  0  0
 24 29  1  0  0  0  0
 24 25  1  0  0  0  0
 24 71  1  1  0  0  0
 25 26  1  0  0  0  0
 25 72  1  0  0  0  0
 25 73  1  0  0  0  0
 26 28  1  0  0  0  0
 26 27  1  0  0  0  0
 26 74  1  0  0  0  0
 27 75  1  0  0  0  0
 27 76  1  0  0  0  0
 27 77  1  0  0  0  0
 28 78  1  0  0  0  0
 28 79  1  0  0  0  0
 28 80  1  0  0  0  0
 29 32  1  0  0  0  0
 29 31  2  6  0  0  0
 29 30  1  0  0  0  0
 32 33  1  0  0  0  0
 33 34  1  0  0  0  0
 33 42  1  0  0  0  0
 33 81  1  6  0  0  0
 34 36  1  0  0  0  0
 34 82  1  0  0  0  0
 34 83  1  0  0  0  0
 35 43  1  0  0  0  0
 35 84  1  0  0  0  0
 35 85  1  0  0  0  0
 35 86  1  0  0  0  0
 36 38  2  0  0  0  0
 36 37  1  0  0  0  0
 37 39  2  0  0  0  0
 37 87  1  0  0  0  0
 38 41  1  0  0  0  0
 38 88  1  0  0  0  0
 39 40  1  0  0  0  0
 39 89  1  0  0  0  0
 40 41  2  0  0  0  0
 40 90  1  0  0  0  0
 42 44  2  0  0  0  0
 42 43  1  0  0  0  0
M  END
$$$$
