PP8
 OpenBabel04041914063D

 89 89  0  0  1  0  0  0  0  0999 V2000
   17.8315    5.2996   18.3688 N   0  0  0  0  0  0  0  0  0  0  0  0
   15.9221    4.0098   17.5818 C   0  0  0  0  0  0  0  0  0  0  0  0
   19.0714    5.6013   19.0787 C   0  0  1  0  0  0  0  0  0  0  0  0
   14.6298    3.8121   18.3707 C   0  0  0  0  0  0  0  0  0  0  0  0
   20.3173    5.5513   18.1771 C   0  0  0  0  0  0  0  0  0  0  0  0
   14.4663    4.9369   19.3829 C   0  0  0  0  0  0  0  0  0  0  0  0
   20.5019    4.1904   17.5258 C   0  0  0  0  0  0  0  0  0  0  0  0
   13.4481    3.8292   17.4079 C   0  0  0  0  0  0  0  0  0  0  0  0
   20.3574    6.6428   17.1175 C   0  0  0  0  0  0  0  0  0  0  0  0
   17.1368    4.1497   18.4984 C   0  0  0  0  0  0  0  0  0  0  0  0
   18.9227    6.9903   19.7174 C   0  0  0  0  0  0  0  0  0  0  0  0
   17.4565    3.2865   19.2958 O   0  0  0  0  0  0  0  0  0  0  0  0
   18.0900    7.8148   19.3598 O   0  0  0  0  0  0  0  0  0  0  0  0
   19.8439    7.2347   20.6993 N   0  0  0  0  0  0  0  0  0  0  0  0
   19.8163    8.4546   21.5109 C   0  0  1  0  0  0  0  0  0  0  0  0
   18.9659    8.2859   22.7393 C   0  0  0  0  0  0  0  0  0  0  0  0
   18.9695    9.3956   23.7442 C   0  0  0  0  0  0  0  0  0  0  0  0
   18.8066    9.1181   24.9246 O   0  0  0  0  0  0  0  0  0  0  0  0
   19.0128   10.7076   23.3862 N   0  0  0  0  0  0  0  0  0  0  0  0
   21.2533    8.8338   21.8215 C   0  0  0  0  0  0  0  0  0  0  0  0
   21.8353    8.4462   22.8159 O   0  0  0  0  0  0  0  0  0  0  0  0
   21.8511    9.4832   20.7760 N   0  0  0  0  0  0  0  0  0  0  0  0
   23.2556    9.8974   20.7669 C   0  0  1  0  0  0  0  0  0  0  0  0
   23.9835    9.4013   19.5121 C   0  0  0  0  0  0  0  0  0  0  0  0
   23.7080    7.9373   19.1796 C   0  0  0  0  0  0  0  0  0  0  0  0
   24.3994    7.5355   17.8867 C   0  0  0  0  0  0  0  0  0  0  0  0
   24.1619    7.0148   20.2973 C   0  0  0  0  0  0  0  0  0  0  0  0
   23.4209   11.7229   20.9105 P   0  0  2  0  0  0  0  0  0  0  0  0
   22.4080   12.3505   19.9667 O   0  0  0  0  0  0  0  0  0  0  0  0
   24.8803   12.0795   20.8198 O   0  0  0  0  0  0  0  0  0  0  0  0
   22.8867   11.9863   22.4220 O   0  0  0  0  0  0  0  0  0  0  0  0
   23.5656   12.9805   23.1812 C   0  0  1  0  0  0  0  0  0  0  0  0
   22.5678   14.0116   23.7295 C   0  0  0  0  0  0  0  0  0  0  0  0
   25.4673   12.8401   26.3742 C   0  0  0  0  0  0  0  0  0  0  0  0
   21.6599   13.5774   24.8669 C   0  0  0  0  0  0  0  0  0  0  0  0
   21.3310   14.4683   25.8924 C   0  0  0  0  0  0  0  0  0  0  0  0
   21.1326   12.2863   24.8967 C   0  0  0  0  0  0  0  0  0  0  0  0
   20.4974   14.0580   26.9207 C   0  0  0  0  0  0  0  0  0  0  0  0
   19.9915   12.7572   26.9167 C   0  0  0  0  0  0  0  0  0  0  0  0
   20.3074   11.8538   25.9235 C   0  0  0  0  0  0  0  0  0  0  0  0
   24.3137   12.3250   24.3549 C   0  0  0  0  0  0  0  0  0  0  0  0
   24.7633   13.3008   25.2103 O   0  0  0  0  0  0  0  0  0  0  0  0
   24.4411   11.1518   24.5201 O   0  0  0  0  0  0  0  0  0  0  0  0
   17.4578    6.0336   17.7971 H   0  0  0  0  0  0  0  0  0  0  0  0
   16.0887    3.1347   16.9392 H   0  0  0  0  0  0  0  0  0  0  0  0
   15.8198    4.8896   16.9313 H   0  0  0  0  0  0  0  0  0  0  0  0
   19.2252    4.8700   19.8783 H   0  0  0  0  0  0  0  0  0  0  0  0
   14.6644    2.8519   18.9022 H   0  0  0  0  0  0  0  0  0  0  0  0
   21.1797    5.7167   18.8273 H   0  0  0  0  0  0  0  0  0  0  0  0
   13.5499    4.7956   19.9598 H   0  0  0  0  0  0  0  0  0  0  0  0
   14.4188    5.9013   18.8641 H   0  0  0  0  0  0  0  0  0  0  0  0
   15.3141    4.9541   20.0755 H   0  0  0  0  0  0  0  0  0  0  0  0
   21.3947    4.2012   16.8908 H   0  0  0  0  0  0  0  0  0  0  0  0
   19.6363    3.9320   16.9078 H   0  0  0  0  0  0  0  0  0  0  0  0
   20.6303    3.4260   18.2979 H   0  0  0  0  0  0  0  0  0  0  0  0
   12.5078    3.6952   17.9526 H   0  0  0  0  0  0  0  0  0  0  0  0
   13.5473    3.0276   16.6691 H   0  0  0  0  0  0  0  0  0  0  0  0
   13.4075    4.7893   16.8759 H   0  0  0  0  0  0  0  0  0  0  0  0
   20.2235    7.6246   17.5798 H   0  0  0  0  0  0  0  0  0  0  0  0
   19.5758    6.4879   16.3693 H   0  0  0  0  0  0  0  0  0  0  0  0
   21.3344    6.6306   16.6194 H   0  0  0  0  0  0  0  0  0  0  0  0
   20.5730    6.5511   20.8618 H   0  0  0  0  0  0  0  0  0  0  0  0
   19.3612    9.2471   20.9235 H   0  0  0  0  0  0  0  0  0  0  0  0
   19.3141    7.4080   23.3034 H   0  0  0  0  0  0  0  0  0  0  0  0
   17.9296    8.1079   22.4346 H   0  0  0  0  0  0  0  0  0  0  0  0
   19.0019   11.4180   24.1189 H   0  0  0  0  0  0  0  0  0  0  0  0
   19.1646   11.0418   22.4512 H   0  0  0  0  0  0  0  0  0  0  0  0
   21.2806    9.7848   19.9979 H   0  0  0  0  0  0  0  0  0  0  0  0
   23.7484    9.4666   21.6310 H   0  0  0  0  0  0  0  0  0  0  0  0
   25.0605    9.5329   19.6828 H   0  0  0  0  0  0  0  0  0  0  0  0
   23.6968   10.0199   18.6510 H   0  0  0  0  0  0  0  0  0  0  0  0
   22.6317    7.8191   19.0354 H   0  0  0  0  0  0  0  0  0  0  0  0
   24.1881    6.4827   17.6691 H   0  0  0  0  0  0  0  0  0  0  0  0
   25.4842    7.6664   17.9741 H   0  0  0  0  0  0  0  0  0  0  0  0
   24.0337    8.1465   17.0554 H   0  0  0  0  0  0  0  0  0  0  0  0
   23.6817    7.2889   21.2372 H   0  0  0  0  0  0  0  0  0  0  0  0
   25.2485    7.0730   20.4283 H   0  0  0  0  0  0  0  0  0  0  0  0
   23.8893    5.9822   20.0596 H   0  0  0  0  0  0  0  0  0  0  0  0
   24.2883   13.4899   22.5376 H   0  0  0  0  0  0  0  0  0  0  0  0
   21.9216   14.3486   22.9140 H   0  0  0  0  0  0  0  0  0  0  0  0
   23.1493   14.8635   24.0985 H   0  0  0  0  0  0  0  0  0  0  0  0
   25.7298   13.7391   26.9424 H   0  0  0  0  0  0  0  0  0  0  0  0
   26.3833   12.3221   26.0808 H   0  0  0  0  0  0  0  0  0  0  0  0
   24.8383   12.1951   26.9943 H   0  0  0  0  0  0  0  0  0  0  0  0
   21.7355   15.4767   25.8898 H   0  0  0  0  0  0  0  0  0  0  0  0
   21.3844   11.6005   24.0963 H   0  0  0  0  0  0  0  0  0  0  0  0
   20.2339   14.7349   27.7278 H   0  0  0  0  0  0  0  0  0  0  0  0
   19.3481   12.4396   27.7176 H   0  0  0  0  0  0  0  0  0  0  0  0
   19.9004   10.8391   25.9210 H   0  0  0  0  0  0  0  0  0  0  0  0
  1  3  1  0  0  0  0
  1 10  1  0  0  0  0
  1 44  1  0  0  0  0
  2 10  1  0  0  0  0
  2  4  1  0  0  0  0
  2 45  1  0  0  0  0
  2 46  1  0  0  0  0
  3  5  1  0  0  0  0
  3 11  1  0  0  0  0
  3 47  1  1  0  0  0
  4  8  1  0  0  0  0
  4  6  1  0  0  0  0
  4 48  1  0  0  0  0
  5  7  1  0  0  0  0
  5  9  1  0  0  0  0
  5 49  1  0  0  0  0
  6 50  1  0  0  0  0
  6 51  1  0  0  0  0
  6 52  1  0  0  0  0
  7 53  1  0  0  0  0
  7 54  1  0  0  0  0
  7 55  1  0  0  0  0
  8 56  1  0  0  0  0
  8 57  1  0  0  0  0
  8 58  1  0  0  0  0
  9 59  1  0  0  0  0
  9 60  1  0  0  0  0
  9 61  1  0  0  0  0
 10 12  2  0  0  0  0
 11 13  2  0  0  0  0
 11 14  1  0  0  0  0
 14 15  1  0  0  0  0
 14 62  1  0  0  0  0
 15 16  1  0  0  0  0
 15 20  1  0  0  0  0
 15 63  1  6  0  0  0
 16 17  1  0  0  0  0
 16 64  1  0  0  0  0
 16 65  1  0  0  0  0
 17 18  2  0  0  0  0
 17 19  1  0  0  0  0
 19 66  1  0  0  0  0
 19 67  1  0  0  0  0
 20 21  2  0  0  0  0
 20 22  1  0  0  0  0
 22 23  1  0  0  0  0
 22 68  1  0  0  0  0
 23 24  1  0  0  0  0
 23 28  1  0  0  0  0
 23 69  1  1  0  0  0
 24 25  1  0  0  0  0
 24 70  1  0  0  0  0
 24 71  1  0  0  0  0
 25 26  1  0  0  0  0
 25 27  1  0  0  0  0
 25 72  1  0  0  0  0
 26 73  1  0  0  0  0
 26 74  1  0  0  0  0
 26 75  1  0  0  0  0
 27 76  1  0  0  0  0
 27 77  1  0  0  0  0
 27 78  1  0  0  0  0
 28 29  2  6  0  0  0
 28 30  1  0  0  0  0
 28 31  1  0  0  0  0
 31 32  1  0  0  0  0
 32 33  1  0  0  0  0
 32 41  1  0  0  0  0
 32 79  1  6  0  0  0
 33 35  1  0  0  0  0
 33 80  1  0  0  0  0
 33 81  1  0  0  0  0
 34 42  1  0  0  0  0
 34 82  1  0  0  0  0
 34 83  1  0  0  0  0
 34 84  1  0  0  0  0
 35 36  2  0  0  0  0
 35 37  1  0  0  0  0
 36 38  1  0  0  0  0
 36 85  1  0  0  0  0
 37 40  2  0  0  0  0
 37 86  1  0  0  0  0
 38 39  2  0  0  0  0
 38 87  1  0  0  0  0
 39 40  1  0  0  0  0
 39 88  1  0  0  0  0
 40 89  1  0  0  0  0
 41 42  1  0  0  0  0
 41 43  2  0  0  0  0
M  END
$$$$
