PPF
 OpenBabel04041915563D

  7  6  0  0  0  0  0  0  0  0999 V2000
   36.8668   35.4716   17.4053 C   0  0  0  0  0  0  0  0  0  0  0  0
   35.3621   36.9168   15.3694 O   0  0  0  0  0  0  0  0  0  0  0  0
   37.4957   38.0724   16.3186 O   0  0  0  0  0  0  0  0  0  0  0  0
   35.3615   37.8991   17.7799 O   0  0  0  0  0  0  0  0  0  0  0  0
   37.6872   35.4985   18.4108 O   0  0  0  0  0  0  0  0  0  0  0  0
   36.4459   34.3679   16.8682 O   0  0  0  0  0  0  0  0  0  0  0  0
   36.1714   37.3479   16.5973 P   0  0  0  0  0  0  0  0  0  0  0  0
  1  5  2  0  0  0  0
  1  6  1  0  0  0  0
  1  7  1  0  0  0  0
  2  7  2  0  0  0  0
  3  7  1  0  0  0  0
  4  7  1  0  0  0  0
M  END
$$$$
