PPX
 OpenBabel04041916363D

 57 59  0  0  1  0  0  0  0  0999 V2000
   19.5873  -15.6096   25.3850 C   0  0  0  0  0  0  0  0  0  0  0  0
   16.5321  -16.9712   23.5435 N   0  3  0  0  0  0  0  0  0  0  0  0
   17.8256  -16.2085   23.6892 C   0  0  2  0  0  0  0  0  0  0  0  0
   18.1450  -16.0115   25.1816 C   0  0  0  0  0  0  0  0  0  0  0  0
   19.9161  -14.3671   25.9438 C   0  0  0  0  0  0  0  0  0  0  0  0
   20.6175  -16.4755   24.9913 C   0  0  0  0  0  0  0  0  0  0  0  0
   21.2533  -13.9685   26.0231 C   0  0  0  0  0  0  0  0  0  0  0  0
   21.9508  -16.0640   25.0540 C   0  0  0  0  0  0  0  0  0  0  0  0
   22.2621  -14.8073   25.5592 C   0  0  0  0  0  0  0  0  0  0  0  0
   17.6558  -14.8373   23.0165 C   0  0  0  0  0  0  0  0  0  0  0  0
   16.6766  -14.1544   23.3343 O   0  0  0  0  0  0  0  0  0  0  0  0
   18.5327  -14.4684   22.0316 N   0  0  0  0  0  0  0  0  0  0  0  0
   19.6366  -15.2329   21.4737 C   0  0  0  0  0  0  0  0  0  0  0  0
   18.3990  -13.1764   21.3487 C   0  0  1  0  0  0  0  0  0  0  0  0
   19.5751  -13.1233   20.3639 C   0  0  0  0  0  0  0  0  0  0  0  0
   20.5451  -14.1829   20.8706 C   0  0  0  0  0  0  0  0  0  0  0  0
   17.0607  -13.1471   20.5893 C   0  0  0  0  0  0  0  0  0  0  0  0
   16.6525  -14.1077   19.9335 O   0  0  0  0  0  0  0  0  0  0  0  0
   16.3494  -11.9850   20.7548 N   0  0  0  0  0  0  0  0  0  0  0  0
   15.0745  -11.7413   20.0977 C   0  0  0  0  0  0  0  0  0  0  0  0
   14.0744  -11.0412   21.0376 C   0  0  0  0  0  0  0  0  0  0  0  0
   13.3008  -12.0402   21.7894 N   0  0  0  0  0  0  0  0  0  0  0  0
   12.3529  -11.6724   22.7326 C   0  0  0  0  0  0  0  0  0  0  0  0
   11.4081  -12.6222   23.1352 C   0  0  0  0  0  0  0  0  0  0  0  0
   10.5421  -12.3488   24.1847 C   0  0  0  0  0  0  0  0  0  0  0  0
   10.6250  -11.1758   24.8207 N   0  3  0  0  0  0  0  0  0  0  0  0
   11.5032  -10.2304   24.4713 C   0  0  0  0  0  0  0  0  0  0  0  0
   12.3838  -10.4621   23.4226 C   0  0  0  0  0  0  0  0  0  0  0  0
   16.5677  -17.8942   23.9885 H   0  0  0  0  0  0  0  0  0  0  0  0
   15.7604  -16.4177   23.9399 H   0  0  0  0  0  0  0  0  0  0  0  0
   18.5593  -16.8323   23.1777 H   0  0  0  0  0  0  0  0  0  0  0  0
   17.4819  -15.2493   25.6146 H   0  0  0  0  0  0  0  0  0  0  0  0
   17.9593  -16.9344   25.7415 H   0  0  0  0  0  0  0  0  0  0  0  0
   19.1491  -13.6906   26.3118 H   0  0  0  0  0  0  0  0  0  0  0  0
   20.4118  -17.4666   24.6060 H   0  0  0  0  0  0  0  0  0  0  0  0
   21.5102  -13.0013   26.4534 H   0  0  0  0  0  0  0  0  0  0  0  0
   22.7470  -16.7261   24.7208 H   0  0  0  0  0  0  0  0  0  0  0  0
   23.3016  -14.4854   25.6119 H   0  0  0  0  0  0  0  0  0  0  0  0
   19.2192  -15.8955   20.7078 H   0  0  0  0  0  0  0  0  0  0  0  0
   20.1475  -15.8318   22.2267 H   0  0  0  0  0  0  0  0  0  0  0  0
   18.4552  -12.3805   22.1006 H   0  0  0  0  0  0  0  0  0  0  0  0
   19.2607  -13.3672   19.3420 H   0  0  0  0  0  0  0  0  0  0  0  0
   20.0410  -12.1326   20.3329 H   0  0  0  0  0  0  0  0  0  0  0  0
   21.1864  -14.5900   20.0836 H   0  0  0  0  0  0  0  0  0  0  0  0
   21.1873  -13.7562   21.6506 H   0  0  0  0  0  0  0  0  0  0  0  0
   16.7341  -11.2490   21.3354 H   0  0  0  0  0  0  0  0  0  0  0  0
   14.6642  -12.6855   19.7220 H   0  0  0  0  0  0  0  0  0  0  0  0
   15.2897  -11.1029   19.2357 H   0  0  0  0  0  0  0  0  0  0  0  0
   13.3948  -10.4183   20.4456 H   0  0  0  0  0  0  0  0  0  0  0  0
   14.6258  -10.3931   21.7287 H   0  0  0  0  0  0  0  0  0  0  0  0
   13.0455  -12.8430   21.2136 H   0  0  0  0  0  0  0  0  0  0  0  0
   11.3464  -13.5873   22.6323 H   0  0  0  0  0  0  0  0  0  0  0  0
    9.7944  -13.0531   24.5376 H   0  0  0  0  0  0  0  0  0  0  0  0
   11.5014   -9.3107   25.0528 H   0  0  0  0  0  0  0  0  0  0  0  0
   13.1052   -9.6876   23.1733 H   0  0  0  0  0  0  0  0  0  0  0  0
   16.3130  -17.0975   22.5452 H   0  0  0  0  0  0  0  0  0  0  0  0
    9.9892  -10.9925   25.6091 H   0  0  0  0  0  0  0  0  0  0  0  0
  1  6  2  0  0  0  0
  1  5  1  0  0  0  0
  1  4  1  0  0  0  0
  2  3  1  0  0  0  0
  2 29  1  0  0  0  0
  2 30  1  0  0  0  0
  2 56  1  0  0  0  0
  3 10  1  0  0  0  0
  3  4  1  0  0  0  0
  3 31  1  6  0  0  0
  4 32  1  0  0  0  0
  4 33  1  0  0  0  0
  5  7  2  0  0  0  0
  5 34  1  0  0  0  0
  6  8  1  0  0  0  0
  6 35  1  0  0  0  0
  7  9  1  0  0  0  0
  7 36  1  0  0  0  0
  8  9  2  0  0  0  0
  8 37  1  0  0  0  0
  9 38  1  0  0  0  0
 10 12  1  0  0  0  0
 10 11  2  0  0  0  0
 12 14  1  0  0  0  0
 12 13  1  0  0  0  0
 13 16  1  0  0  0  0
 13 39  1  0  0  0  0
 13 40  1  0  0  0  0
 14 15  1  0  0  0  0
 14 17  1  0  0  0  0
 14 41  1  1  0  0  0
 15 16  1  0  0  0  0
 15 42  1  0  0  0  0
 15 43  1  0  0  0  0
 16 44  1  0  0  0  0
 16 45  1  0  0  0  0
 17 19  1  0  0  0  0
 17 18  2  0  0  0  0
 19 20  1  0  0  0  0
 19 46  1  0  0  0  0
 20 21  1  0  0  0  0
 20 47  1  0  0  0  0
 20 48  1  0  0  0  0
 21 22  1  0  0  0  0
 21 49  1  0  0  0  0
 21 50  1  0  0  0  0
 22 23  1  0  0  0  0
 22 51  1  0  0  0  0
 23 28  2  0  0  0  0
 23 24  1  0  0  0  0
 24 25  2  0  0  0  0
 24 52  1  0  0  0  0
 25 26  1  0  0  0  0
 25 53  1  0  0  0  0
 26 27  2  0  0  0  0
 26 57  1  0  0  0  0
 27 28  1  0  0  0  0
 27 54  1  0  0  0  0
 28 55  1  0  0  0  0
M  CHG  2   2   1  26   1
M  END
$$$$
