PRA
 OpenBabel04041917103D

 24 24  0  0  0  0  0  0  0  0999 V2000
   24.0599   16.3414   58.0608 C   0  0  0  0  0  0  0  0  0  0  0  0
   22.7125   16.0669   58.7090 C   0  0  0  0  0  0  0  0  0  0  0  0
   22.6976   14.6785   59.3529 C   0  0  0  0  0  0  0  0  0  0  0  0
   22.2721   13.5451   58.4605 C   0  0  0  0  0  0  0  0  0  0  0  0
   23.1211   13.0355   57.4671 C   0  0  0  0  0  0  0  0  0  0  0  0
   22.7387   11.9409   56.6773 C   0  0  0  0  0  0  0  0  0  0  0  0
   21.4860   11.3359   56.8748 C   0  0  0  0  0  0  0  0  0  0  0  0
   20.6203   11.8388   57.8556 C   0  0  0  0  0  0  0  0  0  0  0  0
   21.0173   12.9357   58.6384 C   0  0  0  0  0  0  0  0  0  0  0  0
   24.2592   17.7951   57.7729 N   0  3  0  0  0  0  0  0  0  0  0  0
   24.1283   15.8219   57.1026 H   0  0  0  0  0  0  0  0  0  0  0  0
   24.8801   16.0387   58.7163 H   0  0  0  0  0  0  0  0  0  0  0  0
   21.9147   16.1446   57.9656 H   0  0  0  0  0  0  0  0  0  0  0  0
   22.5297   16.8181   59.4948 H   0  0  0  0  0  0  0  0  0  0  0  0
   22.0227   14.7156   60.2187 H   0  0  0  0  0  0  0  0  0  0  0  0
   23.7001   14.4497   59.7455 H   0  0  0  0  0  0  0  0  0  0  0  0
   24.0995   13.4745   57.3151 H   0  0  0  0  0  0  0  0  0  0  0  0
   23.4066   11.5473   55.9211 H   0  0  0  0  0  0  0  0  0  0  0  0
   21.1884   10.4897   56.2691 H   0  0  0  0  0  0  0  0  0  0  0  0
   19.6538   11.3740   58.0109 H   0  0  0  0  0  0  0  0  0  0  0  0
   20.3409   13.3072   59.4062 H   0  0  0  0  0  0  0  0  0  0  0  0
   25.1709   17.9542   57.3338 H   0  0  0  0  0  0  0  0  0  0  0  0
   23.5349   18.1535   57.1456 H   0  0  0  0  0  0  0  0  0  0  0  0
   24.2320   18.3497   58.6407 H   0  0  0  0  0  0  0  0  0  0  0  0
  1  2  1  0  0  0  0
  1 10  1  0  0  0  0
  1 11  1  0  0  0  0
  1 12  1  0  0  0  0
  2  3  1  0  0  0  0
  2 13  1  0  0  0  0
  2 14  1  0  0  0  0
  3  4  1  0  0  0  0
  3 15  1  0  0  0  0
  3 16  1  0  0  0  0
  4  5  2  0  0  0  0
  4  9  1  0  0  0  0
  5  6  1  0  0  0  0
  5 17  1  0  0  0  0
  6  7  2  0  0  0  0
  6 18  1  0  0  0  0
  7  8  1  0  0  0  0
  7 19  1  0  0  0  0
  8  9  2  0  0  0  0
  8 20  1  0  0  0  0
  9 21  1  0  0  0  0
 10 22  1  0  0  0  0
 10 23  1  0  0  0  0
 10 24  1  0  0  0  0
M  CHG  1  10   1
M  END
$$$$
