PRL
 OpenBabel04041914013D

 27 29  0  0  0  0  0  0  0  0999 V2000
    8.9709   23.1449   49.5470 C   0  0  0  0  0  0  0  0  0  0  0  0
    9.6808   23.6471   48.4537 C   0  0  0  0  0  0  0  0  0  0  0  0
   10.6066   22.8478   47.7854 C   0  0  0  0  0  0  0  0  0  0  0  0
   10.8589   21.5635   48.2851 C   0  0  0  0  0  0  0  0  0  0  0  0
    9.9282   17.9002   51.1421 C   0  0  0  0  0  0  0  0  0  0  0  0
    9.2088   17.2774   52.1624 C   0  0  0  0  0  0  0  0  0  0  0  0
    8.2447   18.0100   52.8438 C   0  0  0  0  0  0  0  0  0  0  0  0
    7.9810   19.3385   52.4848 C   0  0  0  0  0  0  0  0  0  0  0  0
    8.4765   21.2706   51.0592 C   0  0  0  0  0  0  0  0  0  0  0  0
   10.4019   19.7610   49.7420 N   0  0  0  0  0  0  0  0  0  0  0  0
   10.1594   21.0305   49.3622 C   0  0  0  0  0  0  0  0  0  0  0  0
    8.7127   19.9429   51.4544 C   0  0  0  0  0  0  0  0  0  0  0  0
    9.1948   21.8282   49.9947 C   0  0  0  0  0  0  0  0  0  0  0  0
    9.6999   19.2211   50.7646 C   0  0  0  0  0  0  0  0  0  0  0  0
   11.3687   23.3724   46.7514 N   0  0  0  0  0  0  0  0  0  0  0  0
    9.4802   15.9708   52.5273 N   0  0  0  0  0  0  0  0  0  0  0  0
    8.2364   23.7819   50.0340 H   0  0  0  0  0  0  0  0  0  0  0  0
    9.4914   24.6616   48.1174 H   0  0  0  0  0  0  0  0  0  0  0  0
   11.6119   20.9402   47.8077 H   0  0  0  0  0  0  0  0  0  0  0  0
   10.6948   17.3423   50.5937 H   0  0  0  0  0  0  0  0  0  0  0  0
    7.6759   17.5547   53.6489 H   0  0  0  0  0  0  0  0  0  0  0  0
    7.2252   19.8867   53.0379 H   0  0  0  0  0  0  0  0  0  0  0  0
    7.7188   21.8617   51.5705 H   0  0  0  0  0  0  0  0  0  0  0  0
   11.0806   24.2440   46.3233 H   0  0  0  0  0  0  0  0  0  0  0  0
   11.9038   22.7384   46.1682 H   0  0  0  0  0  0  0  0  0  0  0  0
   10.1480   15.4212   52.0116 H   0  0  0  0  0  0  0  0  0  0  0  0
    8.9211   15.5101   53.2273 H   0  0  0  0  0  0  0  0  0  0  0  0
  1 13  2  0  0  0  0
  1  2  1  0  0  0  0
  1 17  1  0  0  0  0
  2  3  2  0  0  0  0
  2 18  1  0  0  0  0
  3 15  1  0  0  0  0
  3  4  1  0  0  0  0
  4 11  2  0  0  0  0
  4 19  1  0  0  0  0
  5 14  1  0  0  0  0
  5  6  2  0  0  0  0
  5 20  1  0  0  0  0
  6 16  1  0  0  0  0
  6  7  1  0  0  0  0
  7  8  2  0  0  0  0
  7 21  1  0  0  0  0
  8 12  1  0  0  0  0
  8 22  1  0  0  0  0
  9 13  1  0  0  0  0
  9 12  2  0  0  0  0
  9 23  1  0  0  0  0
 10 11  1  0  0  0  0
 10 14  2  0  0  0  0
 11 13  1  0  0  0  0
 12 14  1  0  0  0  0
 15 24  1  0  0  0  0
 15 25  1  0  0  0  0
 16 26  1  0  0  0  0
 16 27  1  0  0  0  0
M  END
$$$$
