PRM
 OpenBabel04041915503D

 65 68  0  0  0  0  0  0  0  0999 V2000
   37.7754   25.7395    9.6587 C   0  0  0  0  0  0  0  0  0  0  0  0
   38.5739   25.8257    8.4872 C   0  0  0  0  0  0  0  0  0  0  0  0
   38.0654   25.2649    7.3028 C   0  0  0  0  0  0  0  0  0  0  0  0
   36.8122   24.5733    7.3812 C   0  0  0  0  0  0  0  0  0  0  0  0
   36.0705   24.4394    8.5640 C   0  0  0  0  0  0  0  0  0  0  0  0
   36.5682   25.0397    9.7035 C   0  0  0  0  0  0  0  0  0  0  0  0
   38.8191   25.3951    6.0999 C   0  0  0  0  0  0  0  0  0  0  0  0
   40.0900   25.9360    6.0922 N   0  3  0  0  0  0  0  0  0  0  0  0
   40.6420   26.4145    7.2675 C   0  0  0  0  0  0  0  0  0  0  0  0
   39.8760   26.3993    8.4661 C   0  0  0  0  0  0  0  0  0  0  0  0
   41.9701   26.9105    7.3328 C   0  0  0  0  0  0  0  0  0  0  0  0
   42.5437   27.4075    8.5116 C   0  0  0  0  0  0  0  0  0  0  0  0
   41.7879   27.3900    9.6664 C   0  0  0  0  0  0  0  0  0  0  0  0
   40.4759   26.9233    9.6427 C   0  0  0  0  0  0  0  0  0  0  0  0
   38.2604   24.9718    4.7996 C   0  0  0  0  0  0  0  0  0  0  0  0
   37.5357   25.8741    3.9925 C   0  0  0  0  0  0  0  0  0  0  0  0
   36.9935   25.4691    2.7688 C   0  0  0  0  0  0  0  0  0  0  0  0
   37.1463   24.1524    2.3420 C   0  0  0  0  0  0  0  0  0  0  0  0
   37.8330   23.2418    3.1392 C   0  0  0  0  0  0  0  0  0  0  0  0
   38.3887   23.6448    4.3583 C   0  0  0  0  0  0  0  0  0  0  0  0
   35.0313   23.5224    8.6619 N   0  0  0  0  0  0  0  0  0  0  0  0
   43.9118   27.6597    8.5784 N   0  0  0  0  0  0  0  0  0  0  0  0
   40.8227   26.1544    4.7653 C   0  0  0  0  0  0  0  0  0  0  0  0
   41.8175   25.0298    4.3515 C   0  0  0  0  0  0  0  0  0  0  0  0
   42.1352   25.1607    2.8352 C   0  0  0  0  0  0  0  0  0  0  0  0
   43.4959   24.6098    2.2866 N   0  3  0  0  0  0  0  0  0  0  0  0
   43.6504   23.0681    2.3415 C   0  0  0  0  0  0  0  0  0  0  0  0
   42.4545   22.2802    1.8410 C   0  0  0  0  0  0  0  0  0  0  0  0
   44.6869   25.1872    3.0670 C   0  0  0  0  0  0  0  0  0  0  0  0
   43.5741   25.1236    0.7898 C   0  0  0  0  0  0  0  0  0  0  0  0
   44.9168   24.9767    0.0867 C   0  0  0  0  0  0  0  0  0  0  0  0
   38.0835   26.1814   10.6048 H   0  0  0  0  0  0  0  0  0  0  0  0
   36.4088   24.0733    6.5000 H   0  0  0  0  0  0  0  0  0  0  0  0
   36.0444   24.9431   10.6524 H   0  0  0  0  0  0  0  0  0  0  0  0
   42.6240   26.9031    6.4707 H   0  0  0  0  0  0  0  0  0  0  0  0
   42.2088   27.7203   10.6208 H   0  0  0  0  0  0  0  0  0  0  0  0
   39.9525   26.9441   10.5960 H   0  0  0  0  0  0  0  0  0  0  0  0
   37.3631   26.9023    4.3122 H   0  0  0  0  0  0  0  0  0  0  0  0
   36.4259   26.1700    2.1570 H   0  0  0  0  0  0  0  0  0  0  0  0
   36.6945   23.8286    1.4033 H   0  0  0  0  0  0  0  0  0  0  0  0
   37.9052   22.2024    2.8228 H   0  0  0  0  0  0  0  0  0  0  0  0
   38.8755   22.8951    4.9795 H   0  0  0  0  0  0  0  0  0  0  0  0
   34.5201   23.2903    7.8166 H   0  0  0  0  0  0  0  0  0  0  0  0
   34.4150   23.6307    9.4648 H   0  0  0  0  0  0  0  0  0  0  0  0
   44.3910   27.9707    7.7408 H   0  0  0  0  0  0  0  0  0  0  0  0
   44.2135   28.1929    9.3952 H   0  0  0  0  0  0  0  0  0  0  0  0
   41.3436   27.1156    4.8319 H   0  0  0  0  0  0  0  0  0  0  0  0
   40.0866   26.3287    3.9786 H   0  0  0  0  0  0  0  0  0  0  0  0
   41.3876   24.0438    4.5532 H   0  0  0  0  0  0  0  0  0  0  0  0
   42.7169   25.1155    4.9637 H   0  0  0  0  0  0  0  0  0  0  0  0
   42.1339   26.2246    2.5721 H   0  0  0  0  0  0  0  0  0  0  0  0
   41.3449   24.6819    2.2456 H   0  0  0  0  0  0  0  0  0  0  0  0
   43.8476   22.8051    3.3865 H   0  0  0  0  0  0  0  0  0  0  0  0
   44.5402   22.8102    1.7577 H   0  0  0  0  0  0  0  0  0  0  0  0
   42.6884   21.2086    1.9022 H   0  0  0  0  0  0  0  0  0  0  0  0
   42.2106   22.4967    0.7988 H   0  0  0  0  0  0  0  0  0  0  0  0
   41.5699   22.4420    2.4607 H   0  0  0  0  0  0  0  0  0  0  0  0
   44.6294   26.2816    3.0231 H   0  0  0  0  0  0  0  0  0  0  0  0
   45.6159   24.8222    2.6237 H   0  0  0  0  0  0  0  0  0  0  0  0
   44.6335   24.8366    4.0969 H   0  0  0  0  0  0  0  0  0  0  0  0
   43.3273   26.1912    0.8208 H   0  0  0  0  0  0  0  0  0  0  0  0
   42.7873   24.6048    0.2346 H   0  0  0  0  0  0  0  0  0  0  0  0
   44.8235   25.3762   -0.9328 H   0  0  0  0  0  0  0  0  0  0  0  0
   45.2437   23.9397   -0.0067 H   0  0  0  0  0  0  0  0  0  0  0  0
   45.7082   25.5633    0.5639 H   0  0  0  0  0  0  0  0  0  0  0  0
  1  2  2  0  0  0  0
  1  6  1  0  0  0  0
  1 32  1  0  0  0  0
  2  3  1  0  0  0  0
  2 10  1  0  0  0  0
  3  4  2  0  0  0  0
  3  7  1  0  0  0  0
  4  5  1  0  0  0  0
  4 33  1  0  0  0  0
  5  6  2  0  0  0  0
  5 21  1  0  0  0  0
  6 34  1  0  0  0  0
  7  8  2  0  0  0  0
  7 15  1  0  0  0  0
  8  9  1  0  0  0  0
  8 23  1  0  0  0  0
  9 10  2  0  0  0  0
  9 11  1  0  0  0  0
 10 14  1  0  0  0  0
 11 12  2  0  0  0  0
 11 35  1  0  0  0  0
 12 13  1  0  0  0  0
 12 22  1  0  0  0  0
 13 14  2  0  0  0  0
 13 36  1  0  0  0  0
 14 37  1  0  0  0  0
 15 16  2  0  0  0  0
 15 20  1  0  0  0  0
 16 17  1  0  0  0  0
 16 38  1  0  0  0  0
 17 18  2  0  0  0  0
 17 39  1  0  0  0  0
 18 19  1  0  0  0  0
 18 40  1  0  0  0  0
 19 20  2  0  0  0  0
 19 41  1  0  0  0  0
 20 42  1  0  0  0  0
 21 43  1  0  0  0  0
 21 44  1  0  0  0  0
 22 45  1  0  0  0  0
 22 46  1  0  0  0  0
 23 24  1  0  0  0  0
 23 47  1  0  0  0  0
 23 48  1  0  0  0  0
 24 25  1  0  0  0  0
 24 49  1  0  0  0  0
 24 50  1  0  0  0  0
 25 26  1  0  0  0  0
 25 51  1  0  0  0  0
 25 52  1  0  0  0  0
 26 27  1  0  0  0  0
 26 29  1  0  0  0  0
 26 30  1  0  0  0  0
 27 28  1  0  0  0  0
 27 53  1  0  0  0  0
 27 54  1  0  0  0  0
 28 55  1  0  0  0  0
 28 56  1  0  0  0  0
 28 57  1  0  0  0  0
 29 58  1  0  0  0  0
 29 59  1  0  0  0  0
 29 60  1  0  0  0  0
 30 31  1  0  0  0  0
 30 61  1  0  0  0  0
 30 62  1  0  0  0  0
 31 63  1  0  0  0  0
 31 64  1  0  0  0  0
 31 65  1  0  0  0  0
M  CHG  2   8   1  26   1
M  END
$$$$
