PRZ
 OpenBabel04041916403D

 26 26  0  0  0  0  0  0  0  0999 V2000
   50.2070   22.9694   42.7871 N   0  0  0  0  0  0  0  0  0  0  0  0
   50.2648   23.7691   41.6883 C   0  0  0  0  0  0  0  0  0  0  0  0
   51.2617   23.6023   40.7187 C   0  0  0  0  0  0  0  0  0  0  0  0
   52.1883   22.6159   40.7937 N   0  0  0  0  0  0  0  0  0  0  0  0
   52.1055   21.8233   41.8799 C   0  0  0  0  0  0  0  0  0  0  0  0
   51.1494   21.9976   42.8601 C   0  0  0  0  0  0  0  0  0  0  0  0
   49.1824   24.8141   41.5520 C   0  0  0  0  0  0  0  0  0  0  0  0
   48.2736   24.6257   40.3193 C   0  0  0  0  0  0  0  0  0  0  0  0
   47.2066   25.7206   40.2692 C   0  0  0  0  0  0  0  0  0  0  0  0
   47.6138   23.2466   40.3022 C   0  0  0  0  0  0  0  0  0  0  0  0
   51.2755   24.4616   39.6408 O   0  0  0  0  0  0  0  0  0  0  0  0
   52.4294   24.3156   38.8195 C   0  0  0  0  0  0  0  0  0  0  0  0
   52.8434   21.0275   41.9437 H   0  0  0  0  0  0  0  0  0  0  0  0
   51.1088   21.3602   43.7360 H   0  0  0  0  0  0  0  0  0  0  0  0
   49.6580   25.8053   41.5265 H   0  0  0  0  0  0  0  0  0  0  0  0
   48.5641   24.7991   42.4609 H   0  0  0  0  0  0  0  0  0  0  0  0
   48.8687   24.7212   39.4028 H   0  0  0  0  0  0  0  0  0  0  0  0
   46.5757   25.6037   39.3813 H   0  0  0  0  0  0  0  0  0  0  0  0
   47.6666   26.7131   40.2209 H   0  0  0  0  0  0  0  0  0  0  0  0
   46.5584   25.6870   41.1511 H   0  0  0  0  0  0  0  0  0  0  0  0
   48.3589   22.4445   40.3053 H   0  0  0  0  0  0  0  0  0  0  0  0
   47.0102   23.1200   39.3987 H   0  0  0  0  0  0  0  0  0  0  0  0
   46.9626   23.1090   41.1708 H   0  0  0  0  0  0  0  0  0  0  0  0
   52.3535   25.0487   38.0130 H   0  0  0  0  0  0  0  0  0  0  0  0
   52.4770   23.3220   38.3633 H   0  0  0  0  0  0  0  0  0  0  0  0
   53.3374   24.5353   39.3870 H   0  0  0  0  0  0  0  0  0  0  0  0
  1  2  2  0  0  0  0
  1  6  1  0  0  0  0
  2  3  1  0  0  0  0
  2  7  1  0  0  0  0
  3  4  2  0  0  0  0
  3 11  1  0  0  0  0
  4  5  1  0  0  0  0
  5  6  2  0  0  0  0
  5 13  1  0  0  0  0
  6 14  1  0  0  0  0
  7  8  1  0  0  0  0
  7 15  1  0  0  0  0
  7 16  1  0  0  0  0
  8  9  1  0  0  0  0
  8 10  1  0  0  0  0
  8 17  1  0  0  0  0
  9 18  1  0  0  0  0
  9 19  1  0  0  0  0
  9 20  1  0  0  0  0
 10 21  1  0  0  0  0
 10 22  1  0  0  0  0
 10 23  1  0  0  0  0
 11 12  1  0  0  0  0
 12 24  1  0  0  0  0
 12 25  1  0  0  0  0
 12 26  1  0  0  0  0
M  END
$$$$
