PSI
 OpenBabel04041916503D

 89 89  0  0  1  0  0  0  0  0999 V2000
    6.3899   16.3525   32.3384 N   0  3  0  0  0  0  0  0  0  0  0  0
    6.1966   15.1420   33.2061 C   0  0  1  0  0  0  0  0  0  0  0  0
    7.5014   14.8217   33.9058 C   0  0  0  0  0  0  0  0  0  0  0  0
    5.1061   15.4532   34.2300 C   0  0  0  0  0  0  0  0  0  0  0  0
    4.7633   16.6221   34.4055 O   0  0  0  0  0  0  0  0  0  0  0  0
    4.5628   14.3869   34.8770 N   0  0  0  0  0  0  0  0  0  0  0  0
    3.4590   14.5444   35.8185 C   0  0  1  0  0  0  0  0  0  0  0  0
    2.1315   14.3315   35.1043 C   0  0  0  0  0  0  0  0  0  0  0  0
    3.6761   13.4676   36.8774 C   0  0  0  0  0  0  0  0  0  0  0  0
    3.5518   12.2703   36.6018 O   0  0  0  0  0  0  0  0  0  0  0  0
    4.1889   13.9316   38.0569 N   0  0  0  0  0  0  0  0  0  0  0  0
    4.4515   13.0321   39.1808 C   0  0  1  0  0  0  0  0  0  0  0  0
    5.8444   13.3162   39.7753 C   0  0  0  0  0  0  0  0  0  0  0  0
    6.9436   13.0788   38.7704 C   0  0  0  0  0  0  0  0  0  0  0  0
    7.5790   14.1627   38.1511 C   0  0  0  0  0  0  0  0  0  0  0  0
    7.3113   11.7736   38.4218 C   0  0  0  0  0  0  0  0  0  0  0  0
    8.5849   13.9420   37.2141 C   0  0  0  0  0  0  0  0  0  0  0  0
    8.3094   11.5560   37.4754 C   0  0  0  0  0  0  0  0  0  0  0  0
    8.9490   12.6395   36.8755 C   0  0  0  0  0  0  0  0  0  0  0  0
    3.3604   13.1829   40.2605 C   0  0  1  0  0  0  0  0  0  0  0  0
    3.2764   14.5437   40.7085 O   0  0  0  0  0  0  0  0  0  0  0  0
    1.9610   12.7902   39.7627 C   0  0  0  0  0  0  0  0  0  0  0  0
    1.0909   12.3711   40.9512 C   0  0  0  0  0  0  0  0  0  0  0  0
    1.5135   10.9855   41.3849 C   0  0  0  0  0  0  0  0  0  0  0  0
    1.7648   10.0973   40.5745 O   0  0  0  0  0  0  0  0  0  0  0  0
    1.6418   10.8077   42.7367 N   0  0  0  0  0  0  0  0  0  0  0  0
    1.9008    9.4764   43.2664 C   0  0  1  0  0  0  0  0  0  0  0  0
    3.2868    9.3225   43.9187 C   0  0  0  0  0  0  0  0  0  0  0  0
    3.5449    7.8477   44.2457 C   0  0  0  0  0  0  0  0  0  0  0  0
    4.4193    9.8286   43.0197 C   0  0  0  0  0  0  0  0  0  0  0  0
    0.7981    9.2396   44.3047 C   0  0  0  0  0  0  0  0  0  0  0  0
    0.5282   10.0600   45.1788 O   0  0  0  0  0  0  0  0  0  0  0  0
    0.1268    8.0603   44.1332 N   0  0  0  0  0  0  0  0  0  0  0  0
   -0.8564    7.5689   45.0964 C   0  0  1  0  0  0  0  0  0  0  0  0
   -2.2289    7.4250   44.4239 C   0  0  0  0  0  0  0  0  0  0  0  0
   -2.6972    8.7899   43.8917 C   0  0  0  0  0  0  0  0  0  0  0  0
   -2.2094    6.3945   43.2938 C   0  0  0  0  0  0  0  0  0  0  0  0
   -0.2756    6.2712   45.6751 C   0  0  0  0  0  0  0  0  0  0  0  0
    0.7265    5.7168   45.2316 O   0  0  0  0  0  0  0  0  0  0  0  0
   -0.9500    5.8839   46.7902 O   0  0  0  0  0  0  0  0  0  0  0  0
   -0.1749    5.0423   47.6467 C   0  0  0  0  0  0  0  0  0  0  0  0
    7.1143   16.2501   31.6267 H   0  0  0  0  0  0  0  0  0  0  0  0
    5.4947   16.5907   31.8863 H   0  0  0  0  0  0  0  0  0  0  0  0
    5.8747   14.3322   32.5451 H   0  0  0  0  0  0  0  0  0  0  0  0
    7.3910   13.9223   34.5187 H   0  0  0  0  0  0  0  0  0  0  0  0
    7.8045   15.6375   34.5725 H   0  0  0  0  0  0  0  0  0  0  0  0
    8.3104   14.6446   33.1901 H   0  0  0  0  0  0  0  0  0  0  0  0
    4.8392   13.4250   34.6875 H   0  0  0  0  0  0  0  0  0  0  0  0
    3.4908   15.5418   36.2677 H   0  0  0  0  0  0  0  0  0  0  0  0
    1.2989   14.4269   35.8050 H   0  0  0  0  0  0  0  0  0  0  0  0
    2.0795   13.3332   34.6537 H   0  0  0  0  0  0  0  0  0  0  0  0
    2.0044   15.0621   34.3007 H   0  0  0  0  0  0  0  0  0  0  0  0
    4.2352   14.9248   38.2436 H   0  0  0  0  0  0  0  0  0  0  0  0
    4.4318   11.9967   38.8206 H   0  0  0  0  0  0  0  0  0  0  0  0
    6.0218   12.6774   40.6508 H   0  0  0  0  0  0  0  0  0  0  0  0
    5.9085   14.3505   40.1352 H   0  0  0  0  0  0  0  0  0  0  0  0
    7.2966   15.1820   38.4039 H   0  0  0  0  0  0  0  0  0  0  0  0
    6.8199   10.9185   38.8843 H   0  0  0  0  0  0  0  0  0  0  0  0
    9.0908   14.7864   36.7557 H   0  0  0  0  0  0  0  0  0  0  0  0
    8.5932   10.5390   37.2156 H   0  0  0  0  0  0  0  0  0  0  0  0
    9.7408   12.4638   36.1528 H   0  0  0  0  0  0  0  0  0  0  0  0
    3.6430   12.5648   41.1203 H   0  0  0  0  0  0  0  0  0  0  0  0
    4.0917   14.7582   41.1910 H   0  0  0  0  0  0  0  0  0  0  0  0
    2.0232   11.9690   39.0386 H   0  0  0  0  0  0  0  0  0  0  0  0
    1.4841   13.6368   39.2555 H   0  0  0  0  0  0  0  0  0  0  0  0
    0.0378   12.3191   40.6558 H   0  0  0  0  0  0  0  0  0  0  0  0
    1.1769   13.0894   41.7739 H   0  0  0  0  0  0  0  0  0  0  0  0
    1.2702   11.4968   43.3851 H   0  0  0  0  0  0  0  0  0  0  0  0
    1.7956    8.7405   42.4607 H   0  0  0  0  0  0  0  0  0  0  0  0
    3.3176    9.8961   44.8532 H   0  0  0  0  0  0  0  0  0  0  0  0
    4.5233    7.7171   44.7212 H   0  0  0  0  0  0  0  0  0  0  0  0
    3.5284    7.2365   43.3358 H   0  0  0  0  0  0  0  0  0  0  0  0
    2.7928    7.4517   44.9317 H   0  0  0  0  0  0  0  0  0  0  0  0
    4.3142   10.8951   42.8007 H   0  0  0  0  0  0  0  0  0  0  0  0
    4.4484    9.2828   42.0706 H   0  0  0  0  0  0  0  0  0  0  0  0
    5.3875    9.6944   43.5151 H   0  0  0  0  0  0  0  0  0  0  0  0
    0.4773    7.3861   43.4647 H   0  0  0  0  0  0  0  0  0  0  0  0
   -0.9213    8.2796   45.9295 H   0  0  0  0  0  0  0  0  0  0  0  0
   -2.9555    7.0873   45.1737 H   0  0  0  0  0  0  0  0  0  0  0  0
   -3.6831    8.7159   43.4230 H   0  0  0  0  0  0  0  0  0  0  0  0
   -2.0088    9.1930   43.1400 H   0  0  0  0  0  0  0  0  0  0  0  0
   -2.7621    9.5205   44.7054 H   0  0  0  0  0  0  0  0  0  0  0  0
   -1.9036    5.4106   43.6629 H   0  0  0  0  0  0  0  0  0  0  0  0
   -1.5219    6.6829   42.4909 H   0  0  0  0  0  0  0  0  0  0  0  0
   -3.2062    6.2865   42.8524 H   0  0  0  0  0  0  0  0  0  0  0  0
   -0.8395    4.5601   48.3677 H   0  0  0  0  0  0  0  0  0  0  0  0
    0.5279    5.6790   48.1932 H   0  0  0  0  0  0  0  0  0  0  0  0
    0.3694    4.2631   47.1025 H   0  0  0  0  0  0  0  0  0  0  0  0
    6.5939   17.1650   32.9395 H   0  0  0  0  0  0  0  0  0  0  0  0
  1  2  1  0  0  0  0
  1 42  1  0  0  0  0
  1 43  1  0  0  0  0
  1 89  1  0  0  0  0
  2  4  1  0  0  0  0
  2  3  1  0  0  0  0
  2 44  1  6  0  0  0
  3 45  1  0  0  0  0
  3 46  1  0  0  0  0
  3 47  1  0  0  0  0
  4  6  1  0  0  0  0
  4  5  2  0  0  0  0
  6  7  1  0  0  0  0
  6 48  1  0  0  0  0
  7  9  1  0  0  0  0
  7  8  1  0  0  0  0
  7 49  1  1  0  0  0
  8 50  1  0  0  0  0
  8 51  1  0  0  0  0
  8 52  1  0  0  0  0
  9 11  1  0  0  0  0
  9 10  2  0  0  0  0
 11 12  1  0  0  0  0
 11 53  1  0  0  0  0
 12 20  1  0  0  0  0
 12 13  1  0  0  0  0
 12 54  1  6  0  0  0
 13 14  1  0  0  0  0
 13 55  1  0  0  0  0
 13 56  1  0  0  0  0
 14 16  2  0  0  0  0
 14 15  1  0  0  0  0
 15 17  2  0  0  0  0
 15 57  1  0  0  0  0
 16 18  1  0  0  0  0
 16 58  1  0  0  0  0
 17 19  1  0  0  0  0
 17 59  1  0  0  0  0
 18 19  2  0  0  0  0
 18 60  1  0  0  0  0
 19 61  1  0  0  0  0
 20 22  1  0  0  0  0
 20 21  1  0  0  0  0
 20 62  1  1  0  0  0
 21 63  1  0  0  0  0
 22 23  1  0  0  0  0
 22 64  1  0  0  0  0
 22 65  1  0  0  0  0
 23 24  1  0  0  0  0
 23 66  1  0  0  0  0
 23 67  1  0  0  0  0
 24 26  1  0  0  0  0
 24 25  2  0  0  0  0
 26 27  1  0  0  0  0
 26 68  1  0  0  0  0
 27 31  1  0  0  0  0
 27 28  1  0  0  0  0
 27 69  1  6  0  0  0
 28 30  1  0  0  0  0
 28 29  1  0  0  0  0
 28 70  1  0  0  0  0
 29 71  1  0  0  0  0
 29 72  1  0  0  0  0
 29 73  1  0  0  0  0
 30 74  1  0  0  0  0
 30 75  1  0  0  0  0
 30 76  1  0  0  0  0
 31 33  1  0  0  0  0
 31 32  2  0  0  0  0
 33 34  1  0  0  0  0
 33 77  1  0  0  0  0
 34 38  1  0  0  0  0
 34 35  1  0  0  0  0
 34 78  1  1  0  0  0
 35 37  1  0  0  0  0
 35 36  1  0  0  0  0
 35 79  1  0  0  0  0
 36 80  1  0  0  0  0
 36 81  1  0  0  0  0
 36 82  1  0  0  0  0
 37 83  1  0  0  0  0
 37 84  1  0  0  0  0
 37 85  1  0  0  0  0
 38 40  1  0  0  0  0
 38 39  2  0  0  0  0
 40 41  1  0  0  0  0
 41 86  1  0  0  0  0
 41 87  1  0  0  0  0
 41 88  1  0  0  0  0
M  CHG  1   1   1
M  END
$$$$
