PSI
 OpenBabel04041913543D

 89 89  0  0  1  0  0  0  0  0999 V2000
   -4.8290   18.1670   -4.8239 C   0  0  0  0  0  0  0  0  0  0  0  0
   -5.8794   17.4646   -5.6528 C   0  0  2  0  0  0  0  0  0  0  0  0
   -5.7295   17.9309   -7.0600 N   0  3  0  0  0  0  0  0  0  0  0  0
   -7.2749   17.8092   -5.1341 C   0  0  0  0  0  0  0  0  0  0  0  0
   -7.8607   18.8014   -5.5596 O   0  0  0  0  0  0  0  0  0  0  0  0
   -7.7830   16.9294   -4.2215 N   0  0  0  0  0  0  0  0  0  0  0  0
   -9.0768   17.1181   -3.5637 C   0  0  1  0  0  0  0  0  0  0  0  0
  -10.0838   16.1294   -4.1307 C   0  0  0  0  0  0  0  0  0  0  0  0
   -8.8183   16.8359   -2.0653 C   0  0  0  0  0  0  0  0  0  0  0  0
   -8.3587   15.7623   -1.7082 O   0  0  0  0  0  0  0  0  0  0  0  0
   -9.0134   17.9098   -1.2167 N   0  0  0  0  0  0  0  0  0  0  0  0
   -8.6712   17.8319    0.2146 C   0  0  1  0  0  0  0  0  0  0  0  0
   -7.6900   18.9546    0.6084 C   0  0  0  0  0  0  0  0  0  0  0  0
   -6.3160   18.8292   -0.0151 C   0  0  0  0  0  0  0  0  0  0  0  0
   -5.9563   19.5930   -1.1347 C   0  0  0  0  0  0  0  0  0  0  0  0
   -5.3739   17.9492    0.5366 C   0  0  0  0  0  0  0  0  0  0  0  0
   -4.6678   19.5015   -1.6650 C   0  0  0  0  0  0  0  0  0  0  0  0
   -4.0943   17.8408   -0.0128 C   0  0  0  0  0  0  0  0  0  0  0  0
   -3.7393   18.6218   -1.1088 C   0  0  0  0  0  0  0  0  0  0  0  0
   -9.9199   17.8438    1.1587 C   0  0  1  0  0  0  0  0  0  0  0  0
  -10.7627   18.9876    0.9688 O   0  0  0  0  0  0  0  0  0  0  0  0
  -10.7813   16.5988    0.9327 C   0  0  0  0  0  0  0  0  0  0  0  0
  -11.8829   16.4435    1.9902 C   0  0  0  0  0  0  0  0  0  0  0  0
  -11.3625   15.7478    3.2346 C   0  0  0  0  0  0  0  0  0  0  0  0
  -10.7647   14.6730    3.1531 O   0  0  0  0  0  0  0  0  0  0  0  0
  -11.5913   16.3678    4.4417 N   0  0  0  0  0  0  0  0  0  0  0  0
  -11.2757   15.6645    5.6943 C   0  0  1  0  0  0  0  0  0  0  0  0
  -10.4389   16.5264    6.6616 C   0  0  0  0  0  0  0  0  0  0  0  0
   -9.9881   15.7329    7.8953 C   0  0  0  0  0  0  0  0  0  0  0  0
   -9.1794   17.0443    5.9564 C   0  0  0  0  0  0  0  0  0  0  0  0
  -12.5839   15.1215    6.3439 C   0  0  0  0  0  0  0  0  0  0  0  0
  -13.5935   15.8014    6.5094 O   0  0  0  0  0  0  0  0  0  0  0  0
  -12.4730   13.7855    6.6856 N   0  0  0  0  0  0  0  0  0  0  0  0
  -13.5117   12.9332    7.2833 C   0  0  1  0  0  0  0  0  0  0  0  0
  -14.1505   12.0585    6.1553 C   0  0  0  0  0  0  0  0  0  0  0  0
  -15.2306   11.0988    6.6655 C   0  0  0  0  0  0  0  0  0  0  0  0
  -14.8234   12.9239    5.0683 C   0  0  0  0  0  0  0  0  0  0  0  0
  -12.7287   12.1553    8.3980 C   0  0  0  0  0  0  0  0  0  0  0  0
  -13.1445   12.5958    9.6284 O   0  0  0  0  0  0  0  0  0  0  0  0
  -11.8156   11.3582    8.2110 O   0  0  0  0  0  0  0  0  0  0  0  0
  -13.0409   11.6792   10.7246 C   0  0  0  0  0  0  0  0  0  0  0  0
   -4.8987   17.8380   -3.7858 H   0  0  0  0  0  0  0  0  0  0  0  0
   -4.9696   19.2549   -4.8504 H   0  0  0  0  0  0  0  0  0  0  0  0
   -3.8225   17.9443   -5.1892 H   0  0  0  0  0  0  0  0  0  0  0  0
   -5.7257   16.3812   -5.6628 H   0  0  0  0  0  0  0  0  0  0  0  0
   -6.4429   17.4960   -7.6595 H   0  0  0  0  0  0  0  0  0  0  0  0
   -5.9091   18.9466   -7.0980 H   0  0  0  0  0  0  0  0  0  0  0  0
   -7.2547   16.1181   -3.9088 H   0  0  0  0  0  0  0  0  0  0  0  0
   -9.4267   18.1436   -3.7183 H   0  0  0  0  0  0  0  0  0  0  0  0
  -11.0571   16.2482   -3.6475 H   0  0  0  0  0  0  0  0  0  0  0  0
   -9.7560   15.0948   -3.9761 H   0  0  0  0  0  0  0  0  0  0  0  0
  -10.2093   16.2749   -5.2102 H   0  0  0  0  0  0  0  0  0  0  0  0
   -9.3671   18.7825   -1.5762 H   0  0  0  0  0  0  0  0  0  0  0  0
   -8.1639   16.8751    0.3891 H   0  0  0  0  0  0  0  0  0  0  0  0
   -7.5563   18.9483    1.6985 H   0  0  0  0  0  0  0  0  0  0  0  0
   -8.1188   19.9320    0.3574 H   0  0  0  0  0  0  0  0  0  0  0  0
   -6.6648   20.2901   -1.5726 H   0  0  0  0  0  0  0  0  0  0  0  0
   -5.6241   17.3517    1.4110 H   0  0  0  0  0  0  0  0  0  0  0  0
   -4.3898   20.1102   -2.5205 H   0  0  0  0  0  0  0  0  0  0  0  0
   -3.3724   17.1566    0.4279 H   0  0  0  0  0  0  0  0  0  0  0  0
   -2.7357   18.5512   -1.5206 H   0  0  0  0  0  0  0  0  0  0  0  0
   -9.5717   17.8486    2.2005 H   0  0  0  0  0  0  0  0  0  0  0  0
  -10.3308   19.7862    1.3164 H   0  0  0  0  0  0  0  0  0  0  0  0
  -10.1363   15.7128    0.9149 H   0  0  0  0  0  0  0  0  0  0  0  0
  -11.2599   16.6789   -0.0508 H   0  0  0  0  0  0  0  0  0  0  0  0
  -12.6607   15.7858    1.5812 H   0  0  0  0  0  0  0  0  0  0  0  0
  -12.3582   17.3973    2.2307 H   0  0  0  0  0  0  0  0  0  0  0  0
  -12.1118   17.2337    4.4981 H   0  0  0  0  0  0  0  0  0  0  0  0
  -10.6603   14.7938    5.4364 H   0  0  0  0  0  0  0  0  0  0  0  0
  -11.0361   17.3833    6.9978 H   0  0  0  0  0  0  0  0  0  0  0  0
   -9.3850   16.3630    8.5591 H   0  0  0  0  0  0  0  0  0  0  0  0
   -9.3718   14.8728    7.6076 H   0  0  0  0  0  0  0  0  0  0  0  0
  -10.8389   15.3649    8.4750 H   0  0  0  0  0  0  0  0  0  0  0  0
   -9.4303   17.6299    5.0677 H   0  0  0  0  0  0  0  0  0  0  0  0
   -8.5386   16.2120    5.6451 H   0  0  0  0  0  0  0  0  0  0  0  0
   -8.5974   17.6873    6.6242 H   0  0  0  0  0  0  0  0  0  0  0  0
  -11.6212   13.3174    6.4714 H   0  0  0  0  0  0  0  0  0  0  0  0
  -14.2881   13.5421    7.7482 H   0  0  0  0  0  0  0  0  0  0  0  0
  -13.3691   11.4581    5.6682 H   0  0  0  0  0  0  0  0  0  0  0  0
  -15.6587   10.5114    5.8310 H   0  0  0  0  0  0  0  0  0  0  0  0
  -16.0483   11.6422    7.1337 H   0  0  0  0  0  0  0  0  0  0  0  0
  -14.8360   10.3848    7.3930 H   0  0  0  0  0  0  0  0  0  0  0  0
  -14.1262   13.6291    4.6115 H   0  0  0  0  0  0  0  0  0  0  0  0
  -15.6650   13.4911    5.4838 H   0  0  0  0  0  0  0  0  0  0  0  0
  -15.2210   12.3006    4.2571 H   0  0  0  0  0  0  0  0  0  0  0  0
  -13.1708   12.2290   11.6657 H   0  0  0  0  0  0  0  0  0  0  0  0
  -12.0950   11.1347   10.7647 H   0  0  0  0  0  0  0  0  0  0  0  0
  -13.8818   10.9903   10.6319 H   0  0  0  0  0  0  0  0  0  0  0  0
   -4.7964   17.7308   -7.4346 H   0  0  0  0  0  0  0  0  0  0  0  0
  1  2  1  0  0  0  0
  1 42  1  0  0  0  0
  1 43  1  0  0  0  0
  1 44  1  0  0  0  0
  2  3  1  0  0  0  0
  2  4  1  0  0  0  0
  2 45  1  1  0  0  0
  3 46  1  0  0  0  0
  3 47  1  0  0  0  0
  3 89  1  0  0  0  0
  4  5  2  0  0  0  0
  4  6  1  0  0  0  0
  6  7  1  0  0  0  0
  6 48  1  0  0  0  0
  7  8  1  0  0  0  0
  7  9  1  0  0  0  0
  7 49  1  6  0  0  0
  8 50  1  0  0  0  0
  8 51  1  0  0  0  0
  8 52  1  0  0  0  0
  9 10  2  0  0  0  0
  9 11  1  0  0  0  0
 11 12  1  0  0  0  0
 11 53  1  0  0  0  0
 12 13  1  0  0  0  0
 12 20  1  0  0  0  0
 12 54  1  1  0  0  0
 13 14  1  0  0  0  0
 13 55  1  0  0  0  0
 13 56  1  0  0  0  0
 14 15  2  0  0  0  0
 14 16  1  0  0  0  0
 15 17  1  0  0  0  0
 15 57  1  0  0  0  0
 16 18  2  0  0  0  0
 16 58  1  0  0  0  0
 17 19  2  0  0  0  0
 17 59  1  0  0  0  0
 18 19  1  0  0  0  0
 18 60  1  0  0  0  0
 19 61  1  0  0  0  0
 20 21  1  0  0  0  0
 20 22  1  0  0  0  0
 20 62  1  1  0  0  0
 21 63  1  0  0  0  0
 22 23  1  0  0  0  0
 22 64  1  0  0  0  0
 22 65  1  0  0  0  0
 23 24  1  0  0  0  0
 23 66  1  0  0  0  0
 23 67  1  0  0  0  0
 24 25  2  0  0  0  0
 24 26  1  0  0  0  0
 26 27  1  0  0  0  0
 26 68  1  0  0  0  0
 27 28  1  0  0  0  0
 27 31  1  0  0  0  0
 27 69  1  6  0  0  0
 28 29  1  0  0  0  0
 28 30  1  0  0  0  0
 28 70  1  0  0  0  0
 29 71  1  0  0  0  0
 29 72  1  0  0  0  0
 29 73  1  0  0  0  0
 30 74  1  0  0  0  0
 30 75  1  0  0  0  0
 30 76  1  0  0  0  0
 31 32  2  0  0  0  0
 31 33  1  0  0  0  0
 33 34  1  0  0  0  0
 33 77  1  0  0  0  0
 34 35  1  0  0  0  0
 34 38  1  0  0  0  0
 34 78  1  1  0  0  0
 35 36  1  0  0  0  0
 35 37  1  0  0  0  0
 35 79  1  0  0  0  0
 36 80  1  0  0  0  0
 36 81  1  0  0  0  0
 36 82  1  0  0  0  0
 37 83  1  0  0  0  0
 37 84  1  0  0  0  0
 37 85  1  0  0  0  0
 38 39  1  0  0  0  0
 38 40  2  0  0  0  0
 39 41  1  0  0  0  0
 41 86  1  0  0  0  0
 41 87  1  0  0  0  0
 41 88  1  0  0  0  0
M  CHG  1   3   1
M  END
$$$$
