PSQ
 OpenBabel04041914213D

 31 30  0  0  1  0  0  0  0  0999 V2000
   27.6244   16.5286   23.5363 S   0  0  0  0  0  0  0  0  0  0  0  0
   27.2195   17.2213   22.3193 O   0  0  0  0  0  0  0  0  0  0  0  0
   28.7419   15.6349   23.3850 O   0  0  0  0  0  0  0  0  0  0  0  0
   27.6247   17.3875   24.7209 O   0  0  0  0  0  0  0  0  0  0  0  0
   26.3406   14.3878   24.9080 P   0  0  1  0  0  0  0  0  0  0  0  0
   24.8012   13.8718   24.7210 N   0  0  0  0  0  0  0  0  0  0  0  0
   26.6193   14.8663   26.2936 O   0  0  0  0  0  0  0  0  0  0  0  0
   27.2357   13.1402   24.3986 N   0  0  0  0  0  0  0  0  0  0  0  0
   31.2067    9.4463   24.6421 C   0  0  0  0  0  0  0  0  0  0  0  0
   31.6979    9.7676   23.5342 O   0  0  0  0  0  0  0  0  0  0  0  0
   31.7191    9.3184   25.7924 O   0  0  0  0  0  0  0  0  0  0  0  0
   29.7630    8.8481   24.5749 C   0  0  2  0  0  0  0  0  0  0  0  0
   28.6949    9.7129   25.2588 C   0  0  0  0  0  0  0  0  0  0  0  0
   28.5438   11.0876   24.5967 C   0  0  0  0  0  0  0  0  0  0  0  0
   27.4724   11.9729   25.2462 C   0  0  0  0  0  0  0  0  0  0  0  0
   26.3254   15.5366   23.7462 N   0  0  0  0  0  0  0  0  0  0  0  0
   29.7287    7.4761   25.2443 N   0  3  0  0  0  0  0  0  0  0  0  0
   24.0571   14.4347   25.1177 H   0  0  0  0  0  0  0  0  0  0  0  0
   24.5192   12.8974   24.7095 H   0  0  0  0  0  0  0  0  0  0  0  0
   28.0801   13.3742   23.8698 H   0  0  0  0  0  0  0  0  0  0  0  0
   29.4908    8.6580   23.5331 H   0  0  0  0  0  0  0  0  0  0  0  0
   27.7286    9.1935   25.2063 H   0  0  0  0  0  0  0  0  0  0  0  0
   28.9341    9.8414   26.3210 H   0  0  0  0  0  0  0  0  0  0  0  0
   29.5058   11.6130   24.6314 H   0  0  0  0  0  0  0  0  0  0  0  0
   28.2805   10.9452   23.5420 H   0  0  0  0  0  0  0  0  0  0  0  0
   26.5241   11.4360   25.3063 H   0  0  0  0  0  0  0  0  0  0  0  0
   27.7754   12.2211   26.2756 H   0  0  0  0  0  0  0  0  0  0  0  0
   25.6114   15.6750   23.0620 H   0  0  0  0  0  0  0  0  0  0  0  0
   30.4813    6.9174   24.8232 H   0  0  0  0  0  0  0  0  0  0  0  0
   30.0293    7.6138   26.2221 H   0  0  0  0  0  0  0  0  0  0  0  0
   28.8333    6.9932   25.1754 H   0  0  0  0  0  0  0  0  0  0  0  0
  1 16  1  0  0  0  0
  1  4  2  0  0  0  0
  1  3  2  0  0  0  0
  1  2  1  0  0  0  0
  5 16  1  6  0  0  0
  5  8  1  0  0  0  0
  5  7  2  0  0  0  0
  5  6  1  0  0  0  0
  6 18  1  0  0  0  0
  6 19  1  0  0  0  0
  8 15  1  0  0  0  0
  8 20  1  0  0  0  0
  9 12  1  0  0  0  0
  9 11  2  0  0  0  0
  9 10  1  0  0  0  0
 12 13  1  0  0  0  0
 12 17  1  0  0  0  0
 12 21  1  6  0  0  0
 13 14  1  0  0  0  0
 13 22  1  0  0  0  0
 13 23  1  0  0  0  0
 14 15  1  0  0  0  0
 14 24  1  0  0  0  0
 14 25  1  0  0  0  0
 15 26  1  0  0  0  0
 15 27  1  0  0  0  0
 16 28  1  0  0  0  0
 17 29  1  0  0  0  0
 17 30  1  0  0  0  0
 17 31  1  0  0  0  0
M  CHG  1  17   1
M  END
$$$$
