PTB
 OpenBabel04041917293D

 34 35  0  0  1  0  0  0  0  0999 V2000
   18.6574   -0.4756   -9.2934 N   0  3  0  0  0  0  0  0  0  0  0  0
   19.2627    0.2892   -8.1135 C   0  0  2  0  0  0  0  0  0  0  0  0
   20.7728    0.0183   -7.9369 C   0  0  0  0  0  0  0  0  0  0  0  0
   21.1540   -1.1230   -7.7054 O   0  0  0  0  0  0  0  0  0  0  0  0
   18.4360   -0.1748   -6.9198 C   0  0  0  0  0  0  0  0  0  0  0  0
   17.1015   -0.6429   -7.4683 C   0  0  0  0  0  0  0  0  0  0  0  0
   17.3434   -1.0693   -8.8968 C   0  0  0  0  0  0  0  0  0  0  0  0
   21.6342    1.1527   -8.1673 C   0  0  0  0  0  0  0  0  0  0  0  0
   21.2529    2.3254   -8.6330 N   0  0  0  0  0  0  0  0  0  0  0  0
   22.4000    3.0994   -8.6914 N   0  0  0  0  0  0  0  0  0  0  0  0
   23.3945    2.3522   -8.2676 C   0  0  0  0  0  0  0  0  0  0  0  0
   22.9806    1.0775   -7.9310 O   0  0  0  0  0  0  0  0  0  0  0  0
   24.8539    2.7006   -8.1020 C   0  0  0  0  0  0  0  0  0  0  0  0
   24.9907    4.0111   -7.3181 C   0  0  0  0  0  0  0  0  0  0  0  0
   25.4937    2.8863   -9.4797 C   0  0  0  0  0  0  0  0  0  0  0  0
   25.6003    1.5912   -7.3514 C   0  0  0  0  0  0  0  0  0  0  0  0
   18.5433    0.1603  -10.0944 H   0  0  0  0  0  0  0  0  0  0  0  0
   19.0608    1.3417   -8.3126 H   0  0  0  0  0  0  0  0  0  0  0  0
   18.2844    0.6564   -6.2224 H   0  0  0  0  0  0  0  0  0  0  0  0
   18.9179   -0.9832   -6.3572 H   0  0  0  0  0  0  0  0  0  0  0  0
   16.3603    0.1635   -7.4308 H   0  0  0  0  0  0  0  0  0  0  0  0
   16.7000   -1.4745   -6.8783 H   0  0  0  0  0  0  0  0  0  0  0  0
   17.4221   -2.1557   -8.9961 H   0  0  0  0  0  0  0  0  0  0  0  0
   16.5749   -0.6847   -9.5753 H   0  0  0  0  0  0  0  0  0  0  0  0
   26.0446    4.2925   -7.1894 H   0  0  0  0  0  0  0  0  0  0  0  0
   24.5423    3.9259   -6.3220 H   0  0  0  0  0  0  0  0  0  0  0  0
   24.4911    4.8381   -7.8392 H   0  0  0  0  0  0  0  0  0  0  0  0
   25.4296    1.9671  -10.0714 H   0  0  0  0  0  0  0  0  0  0  0  0
   26.5537    3.1578   -9.3931 H   0  0  0  0  0  0  0  0  0  0  0  0
   24.9926    3.6839  -10.0442 H   0  0  0  0  0  0  0  0  0  0  0  0
   25.1733    1.4431   -6.3533 H   0  0  0  0  0  0  0  0  0  0  0  0
   26.6627    1.8322   -7.2349 H   0  0  0  0  0  0  0  0  0  0  0  0
   25.5297    0.6415   -7.8932 H   0  0  0  0  0  0  0  0  0  0  0  0
   19.2948   -1.2277   -9.6023 H   0  0  0  0  0  0  0  0  0  0  0  0
  1  2  1  0  0  0  0
  1  7  1  0  0  0  0
  1 17  1  0  0  0  0
  1 34  1  0  0  0  0
  2  3  1  0  0  0  0
  2  5  1  0  0  0  0
  2 18  1  6  0  0  0
  3  4  2  0  0  0  0
  3  8  1  0  0  0  0
  5  6  1  0  0  0  0
  5 19  1  0  0  0  0
  5 20  1  0  0  0  0
  6  7  1  0  0  0  0
  6 21  1  0  0  0  0
  6 22  1  0  0  0  0
  7 23  1  0  0  0  0
  7 24  1  0  0  0  0
  8  9  2  0  0  0  0
  8 12  1  0  0  0  0
  9 10  1  0  0  0  0
 10 11  2  0  0  0  0
 11 12  1  0  0  0  0
 11 13  1  0  0  0  0
 13 14  1  0  0  0  0
 13 15  1  0  0  0  0
 13 16  1  0  0  0  0
 14 25  1  0  0  0  0
 14 26  1  0  0  0  0
 14 27  1  0  0  0  0
 15 28  1  0  0  0  0
 15 29  1  0  0  0  0
 15 30  1  0  0  0  0
 16 31  1  0  0  0  0
 16 32  1  0  0  0  0
 16 33  1  0  0  0  0
M  CHG  1   1   1
M  END
$$$$
