PUA
 OpenBabel04041916383D

 71 75  0  0  1  0  0  0  0  0999 V2000
   39.0116   -4.3346   21.7011 P   0  0  1  0  0  0  0  0  0  0  0  0
   40.0390   -5.3397   22.1664 O   0  0  0  0  0  0  0  0  0  0  0  0
   39.5096   -3.0182   21.1881 O   0  0  0  0  0  0  0  0  0  0  0  0
   38.0779   -4.9939   20.5439 O   0  0  0  0  0  0  0  0  0  0  0  0
   37.0637   -2.9097   23.2830 P   0  0  1  0  0  0  0  0  0  0  0  0
   36.3286   -2.3226   22.1018 O   0  0  0  0  0  0  0  0  0  0  0  0
   36.1601   -3.3228   24.4651 O   0  0  0  0  0  0  0  0  0  0  0  0
   37.9536   -4.1475   22.8855 O   0  0  0  0  0  0  0  0  0  0  0  0
   39.7298   -9.8368   19.9170 P   0  0  0  0  0  0  0  0  0  0  0  0
   38.6451  -10.8994   20.1160 O   0  0  0  0  0  0  0  0  0  0  0  0
   40.9186  -10.3706   19.1154 O   0  0  0  0  0  0  0  0  0  0  0  0
   40.0792   -9.0958   21.1757 O   0  0  0  0  0  0  0  0  0  0  0  0
   37.2476   -5.7039   16.3186 N   0  3  0  0  0  0  0  0  0  0  0  0
   37.5385   -4.3767   16.1555 C   0  0  0  0  0  0  0  0  0  0  0  0
   38.2785   -3.5762   16.9169 N   0  0  0  0  0  0  0  0  0  0  0  0
   38.3601   -2.3155   16.4564 C   0  0  0  0  0  0  0  0  0  0  0  0
   37.8212   -1.8217   15.3043 N   0  0  0  0  0  0  0  0  0  0  0  0
   37.0819   -2.6538   14.5570 C   0  0  0  0  0  0  0  0  0  0  0  0
   36.5342   -2.1380   13.3793 N   0  0  0  0  0  0  0  0  0  0  0  0
   36.9101   -3.9878   14.9639 C   0  0  0  0  0  0  0  0  0  0  0  0
   36.2333   -5.0523   14.4044 N   0  0  0  0  0  0  0  0  0  0  0  0
   36.4411   -6.0515   15.2451 C   0  0  0  0  0  0  0  0  0  0  0  0
   37.3762   -6.1804   20.8251 C   0  0  0  0  0  0  0  0  0  0  0  0
   37.5028   -7.1229   19.6407 C   0  0  1  0  0  0  0  0  0  0  0  0
   36.7729   -6.5662   18.4817 O   0  0  0  0  0  0  0  0  0  0  0  0
   37.6792   -6.6345   17.3648 C   0  0  2  0  0  0  0  0  0  0  0  0
   39.0900   -6.5277   17.9476 C   0  0  2  0  0  0  0  0  0  0  0  0
   40.0876   -6.9977   17.0184 O   0  0  0  0  0  0  0  0  0  0  0  0
   38.9513   -7.3850   19.2163 C   0  0  2  0  0  0  0  0  0  0  0  0
   39.0378   -8.7766   18.8591 O   0  0  0  0  0  0  0  0  0  0  0  0
   39.8940    1.8427   22.3787 O   0  0  0  0  0  0  0  0  0  0  0  0
   40.5594    0.7983   23.0736 C   0  0  0  0  0  0  0  0  0  0  0  0
   39.5696    0.0423   23.9713 C   0  0  1  0  0  0  0  0  0  0  0  0
   38.8822    1.0002   24.8466 O   0  0  0  0  0  0  0  0  0  0  0  0
   37.4806    0.9312   24.5145 C   0  0  2  0  0  0  0  0  0  0  0  0
   37.3483    0.2569   23.1686 C   0  0  0  0  0  0  0  0  0  0  0  0
   38.5020   -0.7060   23.1788 C   0  0  2  0  0  0  0  0  0  0  0  0
   38.1389   -1.8683   23.9323 O   0  0  0  0  0  0  0  0  0  0  0  0
   40.2637    2.1893   20.8240 P   0  0  0  0  0  0  0  0  0  0  0  0
   41.3282    3.2786   20.9523 O   0  0  0  0  0  0  0  0  0  0  0  0
   38.9628    2.7285   20.2317 O   0  0  0  0  0  0  0  0  0  0  0  0
   40.7729    0.9136   20.2129 O   0  0  0  0  0  0  0  0  0  0  0  0
   36.9059    2.2798   24.5631 N   0  3  0  0  0  0  0  0  0  0  0  0
   37.4652    3.3057   23.8145 C   0  0  0  0  0  0  0  0  0  0  0  0
   35.7726    2.4704   25.3144 C   0  0  0  0  0  0  0  0  0  0  0  0
   35.2284    1.6407   26.0560 O   0  0  0  0  0  0  0  0  0  0  0  0
   35.2488    3.7475   25.2599 N   0  3  0  0  0  0  0  0  0  0  0  0
   35.6673    4.7580   24.4499 C   0  0  0  0  0  0  0  0  0  0  0  0
   35.0264    5.8173   24.3449 O   0  0  0  0  0  0  0  0  0  0  0  0
   36.9203    4.5210   23.7291 C   0  0  0  0  0  0  0  0  0  0  0  0
   38.9528   -1.6169   17.0440 H   0  0  0  0  0  0  0  0  0  0  0  0
   35.9816   -2.7461   12.8157 H   0  0  0  0  0  0  0  0  0  0  0  0
   36.7111   -1.1665   13.1855 H   0  0  0  0  0  0  0  0  0  0  0  0
   36.0407   -7.0476   15.1236 H   0  0  0  0  0  0  0  0  0  0  0  0
   36.3154   -5.9336   20.9731 H   0  0  0  0  0  0  0  0  0  0  0  0
   37.7594   -6.6716   21.7242 H   0  0  0  0  0  0  0  0  0  0  0  0
   37.0069   -8.0649   19.9011 H   0  0  0  0  0  0  0  0  0  0  0  0
   37.5653   -7.6405   16.9242 H   0  0  0  0  0  0  0  0  0  0  0  0
   39.3194   -5.4936   18.2054 H   0  0  0  0  0  0  0  0  0  0  0  0
   39.8661   -7.9343   16.8453 H   0  0  0  0  0  0  0  0  0  0  0  0
   39.6831   -7.1054   19.9741 H   0  0  0  0  0  0  0  0  0  0  0  0
   41.0225    0.0844   22.3929 H   0  0  0  0  0  0  0  0  0  0  0  0
   41.3415    1.2325   23.7125 H   0  0  0  0  0  0  0  0  0  0  0  0
   40.1275   -0.6448   24.6270 H   0  0  0  0  0  0  0  0  0  0  0  0
   37.0025    0.3006   25.2868 H   0  0  0  0  0  0  0  0  0  0  0  0
   36.3795   -0.2293   23.0695 H   0  0  0  0  0  0  0  0  0  0  0  0
   37.4570    0.9824   22.3608 H   0  0  0  0  0  0  0  0  0  0  0  0
   38.8431   -0.9843   22.1871 H   0  0  0  0  0  0  0  0  0  0  0  0
   38.3710    3.0989   23.2537 H   0  0  0  0  0  0  0  0  0  0  0  0
   34.4095    3.9144   25.7860 H   0  0  0  0  0  0  0  0  0  0  0  0
   37.3651    5.2934   23.1087 H   0  0  0  0  0  0  0  0  0  0  0  0
  1  8  1  1  0  0  0
  1  4  1  0  0  0  0
  1  3  2  0  0  0  0
  1  2  1  0  0  0  0
  4 23  1  0  0  0  0
  5  8  1  6  0  0  0
  5 38  1  0  0  0  0
  5  7  2  0  0  0  0
  5  6  1  0  0  0  0
  9 30  1  0  0  0  0
  9 12  2  0  0  0  0
  9 11  1  0  0  0  0
  9 10  1  0  0  0  0
 13 26  1  0  0  0  0
 13 22  2  0  0  0  0
 13 14  1  0  0  0  0
 14 20  2  0  0  0  0
 14 15  1  0  0  0  0
 15 16  2  0  0  0  0
 16 17  1  0  0  0  0
 16 51  1  0  0  0  0
 17 18  2  0  0  0  0
 18 20  1  0  0  0  0
 18 19  1  0  0  0  0
 19 52  1  0  0  0  0
 19 53  1  0  0  0  0
 20 21  1  0  0  0  0
 21 22  1  0  0  0  0
 22 54  1  0  0  0  0
 23 24  1  0  0  0  0
 23 55  1  0  0  0  0
 23 56  1  0  0  0  0
 24 29  1  0  0  0  0
 24 25  1  0  0  0  0
 24 57  1  1  0  0  0
 25 26  1  0  0  0  0
 26 27  1  0  0  0  0
 26 58  1  6  0  0  0
 27 29  1  0  0  0  0
 27 28  1  0  0  0  0
 27 59  1  1  0  0  0
 28 60  1  0  0  0  0
 29 30  1  0  0  0  0
 29 61  1  1  0  0  0
 31 32  1  0  0  0  0
 31 39  1  0  0  0  0
 32 33  1  0  0  0  0
 32 62  1  0  0  0  0
 32 63  1  0  0  0  0
 33 37  1  0  0  0  0
 33 34  1  0  0  0  0
 33 64  1  1  0  0  0
 34 35  1  0  0  0  0
 35 43  1  0  0  0  0
 35 36  1  0  0  0  0
 35 65  1  1  0  0  0
 36 37  1  0  0  0  0
 36 66  1  0  0  0  0
 36 67  1  0  0  0  0
 37 38  1  0  0  0  0
 37 68  1  6  0  0  0
 39 42  2  0  0  0  0
 39 41  1  0  0  0  0
 39 40  1  0  0  0  0
 43 45  1  0  0  0  0
 43 44  1  0  0  0  0
 44 50  2  0  0  0  0
 44 69  1  0  0  0  0
 45 47  1  0  0  0  0
 45 46  2  0  0  0  0
 47 48  1  0  0  0  0
 47 70  1  0  0  0  0
 48 50  1  0  0  0  0
 48 49  2  0  0  0  0
 50 71  1  0  0  0  0
M  CHG  3  13   1  43   1  47   1
M  END
$$$$
