PUR
 OpenBabel04041914413D

 30 32  0  0  1  0  0  0  0  0999 V2000
    1.4070   20.5734   39.0162 N   0  0  0  0  0  0  0  0  0  0  0  0
    2.4396   20.2606   39.8298 C   0  0  0  0  0  0  0  0  0  0  0  0
    3.6667   19.8016   39.4882 N   0  0  0  0  0  0  0  0  0  0  0  0
    3.7874   19.7058   38.1505 C   0  0  0  0  0  0  0  0  0  0  0  0
    2.8245   19.9930   37.2052 C   0  0  0  0  0  0  0  0  0  0  0  0
    1.5946   20.4355   37.6773 C   0  0  0  0  0  0  0  0  0  0  0  0
    3.2841   19.7683   35.9271 N   0  0  0  0  0  0  0  0  0  0  0  0
    4.5212   19.3661   36.1006 C   0  0  0  0  0  0  0  0  0  0  0  0
    4.8673   19.2804   37.4163 N   0  3  0  0  0  0  0  0  0  0  0  0
    6.1002   18.7182   37.9116 C   0  0  1  0  0  0  0  0  0  0  0  0
    6.5157   17.4558   37.1328 C   0  0  2  0  0  0  0  0  0  0  0  0
    6.7976   16.3673   38.0216 O   0  0  0  0  0  0  0  0  0  0  0  0
    7.7857   17.8654   36.3906 C   0  0  2  0  0  0  0  0  0  0  0  0
    8.6937   16.7705   36.2971 O   0  0  0  0  0  0  0  0  0  0  0  0
    8.3019   19.0055   37.2614 C   0  0  2  0  0  0  0  0  0  0  0  0
    7.1341   19.7035   37.7266 O   0  0  0  0  0  0  0  0  0  0  0  0
    9.2281   20.0066   36.5796 C   0  0  0  0  0  0  0  0  0  0  0  0
    8.6722   20.5178   35.3698 O   0  0  0  0  0  0  0  0  0  0  0  0
    2.2557   20.3963   40.8917 H   0  0  0  0  0  0  0  0  0  0  0  0
    0.7675   20.6753   37.0249 H   0  0  0  0  0  0  0  0  0  0  0  0
    5.1944   19.0701   35.2913 H   0  0  0  0  0  0  0  0  0  0  0  0
    6.0014   18.5165   38.9863 H   0  0  0  0  0  0  0  0  0  0  0  0
    5.7405   17.1020   36.4452 H   0  0  0  0  0  0  0  0  0  0  0  0
    6.9015   15.5818   37.4495 H   0  0  0  0  0  0  0  0  0  0  0  0
    7.5465   18.2016   35.3746 H   0  0  0  0  0  0  0  0  0  0  0  0
    8.8003   16.4124   37.1997 H   0  0  0  0  0  0  0  0  0  0  0  0
    8.8218   18.5951   38.1353 H   0  0  0  0  0  0  0  0  0  0  0  0
   10.1865   19.5384   36.3441 H   0  0  0  0  0  0  0  0  0  0  0  0
    9.4078   20.8577   37.2470 H   0  0  0  0  0  0  0  0  0  0  0  0
    7.8813   21.0352   35.6076 H   0  0  0  0  0  0  0  0  0  0  0  0
  1  6  2  0  0  0  0
  1  2  1  0  0  0  0
  2  3  2  0  0  0  0
  2 19  1  0  0  0  0
  3  4  1  0  0  0  0
  4  9  1  0  0  0  0
  4  5  2  0  0  0  0
  5  7  1  0  0  0  0
  5  6  1  0  0  0  0
  6 20  1  0  0  0  0
  7  8  1  0  0  0  0
  8  9  2  0  0  0  0
  8 21  1  0  0  0  0
  9 10  1  0  0  0  0
 10 16  1  0  0  0  0
 10 11  1  0  0  0  0
 10 22  1  1  0  0  0
 11 13  1  0  0  0  0
 11 12  1  0  0  0  0
 11 23  1  6  0  0  0
 12 24  1  0  0  0  0
 13 15  1  0  0  0  0
 13 14  1  0  0  0  0
 13 25  1  6  0  0  0
 14 26  1  0  0  0  0
 15 17  1  0  0  0  0
 15 16  1  0  0  0  0
 15 27  1  1  0  0  0
 17 18  1  0  0  0  0
 17 28  1  0  0  0  0
 17 29  1  0  0  0  0
 18 30  1  0  0  0  0
M  CHG  1   9   1
M  END
$$$$
