PXY
 OpenBabel04041913523D

 18 18  0  0  0  0  0  0  0  0999 V2000
   26.6374    6.1298    4.7047 C   0  0  0  0  0  0  0  0  0  0  0  0
   26.7807    5.6345    3.4087 C   0  0  0  0  0  0  0  0  0  0  0  0
   27.2650    6.4558    2.3976 C   0  0  0  0  0  0  0  0  0  0  0  0
   27.5996    7.7927    2.6612 C   0  0  0  0  0  0  0  0  0  0  0  0
   27.4475    8.2884    3.9525 C   0  0  0  0  0  0  0  0  0  0  0  0
   26.9777    7.4580    4.9726 C   0  0  0  0  0  0  0  0  0  0  0  0
   26.1335    5.2296    5.7866 C   0  0  0  0  0  0  0  0  0  0  0  0
   28.1042    8.6657    1.5570 C   0  0  0  0  0  0  0  0  0  0  0  0
   26.5117    4.6071    3.1885 H   0  0  0  0  0  0  0  0  0  0  0  0
   27.3748    6.0392    1.3995 H   0  0  0  0  0  0  0  0  0  0  0  0
   27.6960    9.3245    4.1721 H   0  0  0  0  0  0  0  0  0  0  0  0
   26.8799    7.8523    5.9798 H   0  0  0  0  0  0  0  0  0  0  0  0
   25.9125    4.2304    5.3925 H   0  0  0  0  0  0  0  0  0  0  0  0
   25.2121    5.6363    6.2135 H   0  0  0  0  0  0  0  0  0  0  0  0
   26.8932    5.1239    6.5663 H   0  0  0  0  0  0  0  0  0  0  0  0
   28.1541    8.1119    0.6138 H   0  0  0  0  0  0  0  0  0  0  0  0
   29.1090    9.0269    1.7936 H   0  0  0  0  0  0  0  0  0  0  0  0
   27.4323    9.5159    1.4141 H   0  0  0  0  0  0  0  0  0  0  0  0
  1  2  2  0  0  0  0
  1  6  1  0  0  0  0
  1  7  1  0  0  0  0
  2  3  1  0  0  0  0
  2  9  1  0  0  0  0
  3  4  2  0  0  0  0
  3 10  1  0  0  0  0
  4  5  1  0  0  0  0
  4  8  1  0  0  0  0
  5  6  2  0  0  0  0
  5 11  1  0  0  0  0
  6 12  1  0  0  0  0
  7 13  1  0  0  0  0
  7 14  1  0  0  0  0
  7 15  1  0  0  0  0
  8 16  1  0  0  0  0
  8 17  1  0  0  0  0
  8 18  1  0  0  0  0
M  END
$$$$
