Q50
 OpenBabel04041915073D

 99101  0  0  1  0  0  0  0  0999 V2000
   17.7034   14.9086    5.7715 O   0  0  0  0  0  0  0  0  0  0  0  0
   18.7305   15.5175    5.3843 C   0  0  0  0  0  0  0  0  0  0  0  0
   19.5498   14.9289    4.4835 N   0  0  0  0  0  0  0  0  0  0  0  0
   19.0299   16.9094    5.8734 C   0  0  2  0  0  0  0  0  0  0  0  0
   19.6784   16.8559    7.2493 C   0  0  0  0  0  0  0  0  0  0  0  0
   18.8626   16.2121    8.3323 C   0  0  0  0  0  0  0  0  0  0  0  0
   17.9898   17.0119    9.0671 C   0  0  0  0  0  0  0  0  0  0  0  0
   17.1901   16.4613   10.0499 C   0  0  0  0  0  0  0  0  0  0  0  0
   17.2961   15.1047   10.3304 C   0  0  0  0  0  0  0  0  0  0  0  0
   18.1739   14.2976    9.6107 C   0  0  0  0  0  0  0  0  0  0  0  0
   18.9616   14.8436    8.6063 C   0  0  0  0  0  0  0  0  0  0  0  0
   17.7778   17.6610    5.8223 N   0  0  0  0  0  0  0  0  0  0  0  0
   17.7181   18.9909    5.4691 C   0  0  0  0  0  0  0  0  0  0  0  0
   18.6899   19.6802    5.2780 O   0  0  0  0  0  0  0  0  0  0  0  0
   16.2716   19.4866    5.3014 C   0  0  2  0  0  0  0  0  0  0  0  0
   15.7931   19.5393    3.8615 C   0  0  0  0  0  0  0  0  0  0  0  0
   15.6927   18.2274    3.1318 C   0  0  0  0  0  0  0  0  0  0  0  0
   17.0340   17.8530    2.5750 C   0  0  0  0  0  0  0  0  0  0  0  0
   17.8095   18.6446    2.0646 O   0  0  0  0  0  0  0  0  0  0  0  0
   17.3503   16.5344    2.6855 N   0  0  0  0  0  0  0  0  0  0  0  0
   16.2190   20.8651    5.7548 N   0  0  0  0  0  0  0  0  0  0  0  0
   15.0167   21.3962    6.1311 C   0  0  0  0  0  0  0  0  0  0  0  0
   14.0155   20.7224    6.2113 O   0  0  0  0  0  0  0  0  0  0  0  0
   15.0808   22.9021    6.4006 C   0  0  2  0  0  0  0  0  0  0  0  0
   15.6538   23.3282    7.7291 C   0  0  0  0  0  0  0  0  0  0  0  0
   15.5364   22.2192    8.7028 C   0  0  0  0  0  0  0  0  0  0  0  0
   14.3150   21.9283    9.3184 C   0  0  0  0  0  0  0  0  0  0  0  0
   14.2639   20.8354   10.1566 C   0  0  0  0  0  0  0  0  0  0  0  0
   15.4004   20.0632   10.3739 C   0  0  0  0  0  0  0  0  0  0  0  0
   16.5939   20.3381    9.7213 C   0  0  0  0  0  0  0  0  0  0  0  0
   16.6643   21.4174    8.8792 C   0  0  0  0  0  0  0  0  0  0  0  0
   13.6714   23.4416    6.3127 C   0  0  0  0  0  0  0  0  0  0  0  0
   13.4034   23.7118    4.8476 C   0  0  2  0  0  0  0  0  0  0  0  0
   14.0668   24.9502    4.5417 O   0  0  0  0  0  0  0  0  0  0  0  0
   11.8896   23.7242    4.5759 C   0  0  1  0  0  0  0  0  0  0  0  0
   11.2324   24.8295    5.2836 N   0  0  0  0  0  0  0  0  0  0  0  0
   10.6788   24.6874    6.5211 C   0  0  0  0  0  0  0  0  0  0  0  0
   10.7508   23.6423    7.1284 O   0  0  0  0  0  0  0  0  0  0  0  0
   10.1122   25.8567    6.9350 O   0  0  0  0  0  0  0  0  0  0  0  0
    9.6013   26.0934    8.2959 C   0  0  0  0  0  0  0  0  0  0  0  0
   10.7031   25.8152    9.3081 C   0  0  0  0  0  0  0  0  0  0  0  0
    8.3508   25.2706    8.5844 C   0  0  0  0  0  0  0  0  0  0  0  0
    9.2103   27.5811    8.4084 C   0  0  0  0  0  0  0  0  0  0  0  0
   11.5734   23.8945    3.0952 C   0  0  0  0  0  0  0  0  0  0  0  0
   10.0798   23.8890    2.8554 C   0  0  0  0  0  0  0  0  0  0  0  0
    9.4300   25.0864    2.5521 C   0  0  0  0  0  0  0  0  0  0  0  0
    8.0482   25.1348    2.3720 C   0  0  0  0  0  0  0  0  0  0  0  0
    7.2950   23.9763    2.4773 C   0  0  0  0  0  0  0  0  0  0  0  0
    7.9328   22.7766    2.7663 C   0  0  0  0  0  0  0  0  0  0  0  0
    9.3149   22.7296    2.9742 C   0  0  0  0  0  0  0  0  0  0  0  0
   20.3766   15.3993    4.1375 H   0  0  0  0  0  0  0  0  0  0  0  0
   19.3255   14.0020    4.1245 H   0  0  0  0  0  0  0  0  0  0  0  0
   19.7422   17.3748    5.1846 H   0  0  0  0  0  0  0  0  0  0  0  0
   19.8968   17.8789    7.5696 H   0  0  0  0  0  0  0  0  0  0  0  0
   20.6206   16.3053    7.1818 H   0  0  0  0  0  0  0  0  0  0  0  0
   17.9542   18.0722    8.8585 H   0  0  0  0  0  0  0  0  0  0  0  0
   16.4879   17.0826   10.5945 H   0  0  0  0  0  0  0  0  0  0  0  0
   16.6918   14.6773   11.1202 H   0  0  0  0  0  0  0  0  0  0  0  0
   18.2379   13.2394    9.8355 H   0  0  0  0  0  0  0  0  0  0  0  0
   19.6394   14.2088    8.0417 H   0  0  0  0  0  0  0  0  0  0  0  0
   16.9236   17.1884    6.1042 H   0  0  0  0  0  0  0  0  0  0  0  0
   15.6225   18.8701    5.9388 H   0  0  0  0  0  0  0  0  0  0  0  0
   16.4618   20.2243    3.3247 H   0  0  0  0  0  0  0  0  0  0  0  0
   14.7992   20.0022    3.8751 H   0  0  0  0  0  0  0  0  0  0  0  0
   15.0098   18.3403    2.2808 H   0  0  0  0  0  0  0  0  0  0  0  0
   15.3137   17.4437    3.7893 H   0  0  0  0  0  0  0  0  0  0  0  0
   18.2504   16.2104    2.3525 H   0  0  0  0  0  0  0  0  0  0  0  0
   16.7118   15.8780    3.1136 H   0  0  0  0  0  0  0  0  0  0  0  0
   17.0207   21.4612    5.6095 H   0  0  0  0  0  0  0  0  0  0  0  0
   15.7069   23.3484    5.6251 H   0  0  0  0  0  0  0  0  0  0  0  0
   15.1259   24.2021    8.1272 H   0  0  0  0  0  0  0  0  0  0  0  0
   16.7053   23.6155    7.6161 H   0  0  0  0  0  0  0  0  0  0  0  0
   13.4374   22.5424    9.1239 H   0  0  0  0  0  0  0  0  0  0  0  0
   13.3375   20.5818   10.6568 H   0  0  0  0  0  0  0  0  0  0  0  0
   15.3698   19.2270   11.0676 H   0  0  0  0  0  0  0  0  0  0  0  0
   17.4679   19.7259    9.8836 H   0  0  0  0  0  0  0  0  0  0  0  0
   17.5789   21.6501    8.3454 H   0  0  0  0  0  0  0  0  0  0  0  0
   13.5823   24.3655    6.8990 H   0  0  0  0  0  0  0  0  0  0  0  0
   12.9592   22.7165    6.7194 H   0  0  0  0  0  0  0  0  0  0  0  0
   13.8773   22.9287    4.2418 H   0  0  0  0  0  0  0  0  0  0  0  0
   13.9655   25.1356    3.5984 H   0  0  0  0  0  0  0  0  0  0  0  0
   11.4961   22.7510    4.9156 H   0  0  0  0  0  0  0  0  0  0  0  0
   11.1686   25.7123    4.8222 H   0  0  0  0  0  0  0  0  0  0  0  0
   10.3628   25.9909   10.3325 H   0  0  0  0  0  0  0  0  0  0  0  0
   11.5650   26.4582    9.0998 H   0  0  0  0  0  0  0  0  0  0  0  0
   11.0239   24.7774    9.2161 H   0  0  0  0  0  0  0  0  0  0  0  0
    7.9753   25.4537    9.6000 H   0  0  0  0  0  0  0  0  0  0  0  0
    8.5755   24.2116    8.4736 H   0  0  0  0  0  0  0  0  0  0  0  0
    7.5628   25.5336    7.8694 H   0  0  0  0  0  0  0  0  0  0  0  0
    8.8306   27.8294    9.4118 H   0  0  0  0  0  0  0  0  0  0  0  0
    8.4305   27.8228    7.6753 H   0  0  0  0  0  0  0  0  0  0  0  0
   10.0759   28.2210    8.1979 H   0  0  0  0  0  0  0  0  0  0  0  0
   12.0384   23.1013    2.5044 H   0  0  0  0  0  0  0  0  0  0  0  0
   11.9844   24.8563    2.7619 H   0  0  0  0  0  0  0  0  0  0  0  0
   10.0137   25.9981    2.4613 H   0  0  0  0  0  0  0  0  0  0  0  0
    7.5652   26.0791    2.1439 H   0  0  0  0  0  0  0  0  0  0  0  0
    6.2178   23.9975    2.3367 H   0  0  0  0  0  0  0  0  0  0  0  0
    7.3477   21.8620    2.8317 H   0  0  0  0  0  0  0  0  0  0  0  0
    9.7858   21.7834    3.2262 H   0  0  0  0  0  0  0  0  0  0  0  0
  1  2  2  0  0  0  0
  2  4  1  0  0  0  0
  2  3  1  0  0  0  0
  3 51  1  0  0  0  0
  3 52  1  0  0  0  0
  4 12  1  0  0  0  0
  4  5  1  0  0  0  0
  4 53  1  6  0  0  0
  5  6  1  0  0  0  0
  5 54  1  0  0  0  0
  5 55  1  0  0  0  0
  6 11  2  0  0  0  0
  6  7  1  0  0  0  0
  7  8  2  0  0  0  0
  7 56  1  0  0  0  0
  8  9  1  0  0  0  0
  8 57  1  0  0  0  0
  9 10  2  0  0  0  0
  9 58  1  0  0  0  0
 10 11  1  0  0  0  0
 10 59  1  0  0  0  0
 11 60  1  0  0  0  0
 12 13  1  0  0  0  0
 12 61  1  0  0  0  0
 13 15  1  0  0  0  0
 13 14  2  0  0  0  0
 15 21  1  0  0  0  0
 15 16  1  0  0  0  0
 15 62  1  1  0  0  0
 16 17  1  0  0  0  0
 16 63  1  0  0  0  0
 16 64  1  0  0  0  0
 17 18  1  0  0  0  0
 17 65  1  0  0  0  0
 17 66  1  0  0  0  0
 18 20  1  0  0  0  0
 18 19  2  0  0  0  0
 20 67  1  0  0  0  0
 20 68  1  0  0  0  0
 21 22  1  0  0  0  0
 21 69  1  0  0  0  0
 22 24  1  0  0  0  0
 22 23  2  0  0  0  0
 24 32  1  0  0  0  0
 24 25  1  0  0  0  0
 24 70  1  6  0  0  0
 25 26  1  0  0  0  0
 25 71  1  0  0  0  0
 25 72  1  0  0  0  0
 26 31  2  0  0  0  0
 26 27  1  0  0  0  0
 27 28  2  0  0  0  0
 27 73  1  0  0  0  0
 28 29  1  0  0  0  0
 28 74  1  0  0  0  0
 29 30  2  0  0  0  0
 29 75  1  0  0  0  0
 30 31  1  0  0  0  0
 30 76  1  0  0  0  0
 31 77  1  0  0  0  0
 32 33  1  0  0  0  0
 32 78  1  0  0  0  0
 32 79  1  0  0  0  0
 33 35  1  0  0  0  0
 33 34  1  0  0  0  0
 33 80  1  6  0  0  0
 34 81  1  0  0  0  0
 35 44  1  0  0  0  0
 35 36  1  0  0  0  0
 35 82  1  1  0  0  0
 36 37  1  0  0  0  0
 36 83  1  0  0  0  0
 37 39  1  0  0  0  0
 37 38  2  0  0  0  0
 39 40  1  0  0  0  0
 40 43  1  0  0  0  0
 40 42  1  0  0  0  0
 40 41  1  0  0  0  0
 41 84  1  0  0  0  0
 41 85  1  0  0  0  0
 41 86  1  0  0  0  0
 42 87  1  0  0  0  0
 42 88  1  0  0  0  0
 42 89  1  0  0  0  0
 43 90  1  0  0  0  0
 43 91  1  0  0  0  0
 43 92  1  0  0  0  0
 44 45  1  0  0  0  0
 44 93  1  0  0  0  0
 44 94  1  0  0  0  0
 45 50  2  0  0  0  0
 45 46  1  0  0  0  0
 46 47  2  0  0  0  0
 46 95  1  0  0  0  0
 47 48  1  0  0  0  0
 47 96  1  0  0  0  0
 48 49  2  0  0  0  0
 48 97  1  0  0  0  0
 49 50  1  0  0  0  0
 49 98  1  0  0  0  0
 50 99  1  0  0  0  0
M  END
$$$$
