Q82
 OpenBabel04041914593D

 83 87  0  0  1  0  0  0  0  0999 V2000
   -7.7323   14.4923   28.2588 N   0  0  0  0  0  0  0  0  0  0  0  0
  -11.2571   18.8481   29.0215 O   0  0  0  0  0  0  0  0  0  0  0  0
   -9.3768   19.5712   27.1260 O   0  0  0  0  0  0  0  0  0  0  0  0
   -8.9051   15.9748   26.8675 N   0  0  0  0  0  0  0  0  0  0  0  0
   -9.4924   15.6066   29.1544 N   0  0  0  0  0  0  0  0  0  0  0  0
   -8.7482   15.3147   28.0591 C   0  0  2  0  0  0  0  0  0  0  0  0
   -9.4400   14.7187   30.3289 C   0  0  0  0  0  0  0  0  0  0  0  0
  -10.6120   16.5357   29.0481 C   0  0  1  0  0  0  0  0  0  0  0  0
  -10.1701   17.9722   28.7103 C   0  0  1  0  0  0  0  0  0  0  0  0
   -9.7931   18.2136   27.2588 C   0  0  2  0  0  0  0  0  0  0  0  0
   -8.5982   17.3894   26.8287 C   0  0  1  0  0  0  0  0  0  0  0  0
   -9.3474   15.2728   25.6538 C   0  0  0  0  0  0  0  0  0  0  0  0
   -9.6842   15.4190   31.6216 C   0  0  0  0  0  0  0  0  0  0  0  0
   -8.8280   16.4151   32.0847 C   0  0  0  0  0  0  0  0  0  0  0  0
   -9.0003   16.9181   33.3827 C   0  0  0  0  0  0  0  0  0  0  0  0
  -10.0404   16.4410   34.2127 C   0  0  0  0  0  0  0  0  0  0  0  0
  -10.9162   15.4661   33.7227 C   0  0  0  0  0  0  0  0  0  0  0  0
  -10.7306   14.9638   32.4429 C   0  0  0  0  0  0  0  0  0  0  0  0
  -11.6698   15.9163   28.1417 C   0  0  0  0  0  0  0  0  0  0  0  0
  -12.3257   14.6977   28.7649 C   0  0  0  0  0  0  0  0  0  0  0  0
  -12.0335   13.3873   28.3612 C   0  0  0  0  0  0  0  0  0  0  0  0
  -12.6872   12.2619   28.8859 C   0  0  0  0  0  0  0  0  0  0  0  0
  -13.6641   12.4367   29.8477 C   0  0  0  0  0  0  0  0  0  0  0  0
  -13.9529   13.7327   30.2724 C   0  0  0  0  0  0  0  0  0  0  0  0
  -13.2871   14.8505   29.7499 C   0  0  0  0  0  0  0  0  0  0  0  0
   -7.3497   17.6660   27.6901 C   0  0  0  0  0  0  0  0  0  0  0  0
   -6.2021   18.0786   26.8401 C   0  0  0  0  0  0  0  0  0  0  0  0
   -6.3678   19.1000   25.9002 C   0  0  0  0  0  0  0  0  0  0  0  0
   -5.4446   19.2567   24.8771 C   0  0  0  0  0  0  0  0  0  0  0  0
   -4.3184   18.4387   24.8277 C   0  0  0  0  0  0  0  0  0  0  0  0
   -4.1206   17.4568   25.7941 C   0  0  0  0  0  0  0  0  0  0  0  0
   -5.0502   17.2936   26.8139 C   0  0  0  0  0  0  0  0  0  0  0  0
   -8.8152   15.8036   24.3603 C   0  0  0  0  0  0  0  0  0  0  0  0
   -7.4826   16.1235   24.1675 C   0  0  0  0  0  0  0  0  0  0  0  0
   -7.0070   16.6063   22.9391 C   0  0  0  0  0  0  0  0  0  0  0  0
   -7.8595   16.7450   21.8434 C   0  0  0  0  0  0  0  0  0  0  0  0
   -9.2081   16.4177   22.0233 C   0  0  0  0  0  0  0  0  0  0  0  0
   -9.6618   15.9459   23.2630 C   0  0  0  0  0  0  0  0  0  0  0  0
   -7.0874   13.9202   27.1700 C   0  0  0  0  0  0  0  0  0  0  0  0
   -6.6203   13.4518   26.2806 N   0  0  0  0  0  0  0  0  0  0  0  0
   -7.4032   17.2590   20.4886 C   0  0  0  0  0  0  0  0  0  0  0  0
  -10.2380   16.9793   35.6199 C   0  0  0  0  0  0  0  0  0  0  0  0
   -5.9886   17.1654   20.3486 O   0  0  0  0  0  0  0  0  0  0  0  0
  -11.2662   16.2883   36.3363 O   0  0  0  0  0  0  0  0  0  0  0  0
   -7.3849   14.2243   29.1523 H   0  0  0  0  0  0  0  0  0  0  0  0
  -10.9891   19.7630   28.8240 H   0  0  0  0  0  0  0  0  0  0  0  0
  -10.1060   20.1537   27.3773 H   0  0  0  0  0  0  0  0  0  0  0  0
   -8.4514   14.2791   30.4067 H   0  0  0  0  0  0  0  0  0  0  0  0
  -10.1587   13.9107   30.1973 H   0  0  0  0  0  0  0  0  0  0  0  0
  -11.0459   16.6172   30.0421 H   0  0  0  0  0  0  0  0  0  0  0  0
   -9.3270   18.2493   29.3538 H   0  0  0  0  0  0  0  0  0  0  0  0
  -10.6563   18.0247   26.6090 H   0  0  0  0  0  0  0  0  0  0  0  0
   -8.3894   17.6651   25.7948 H   0  0  0  0  0  0  0  0  0  0  0  0
  -10.4281   15.3788   25.6121 H   0  0  0  0  0  0  0  0  0  0  0  0
   -9.0930   14.2267   25.7487 H   0  0  0  0  0  0  0  0  0  0  0  0
   -8.0174   16.7646   31.4459 H   0  0  0  0  0  0  0  0  0  0  0  0
   -8.2998   17.6881   33.7270 H   0  0  0  0  0  0  0  0  0  0  0  0
  -11.7412   15.0886   34.3352 H   0  0  0  0  0  0  0  0  0  0  0  0
  -11.3942   14.1826   32.0847 H   0  0  0  0  0  0  0  0  0  0  0  0
  -11.2038   15.6047   27.2153 H   0  0  0  0  0  0  0  0  0  0  0  0
  -12.4284   16.6528   27.9016 H   0  0  0  0  0  0  0  0  0  0  0  0
  -11.2866   13.2204   27.6061 H   0  0  0  0  0  0  0  0  0  0  0  0
  -12.4307   11.2639   28.5292 H   0  0  0  0  0  0  0  0  0  0  0  0
  -14.1965   11.5845   30.2650 H   0  0  0  0  0  0  0  0  0  0  0  0
  -14.7184   13.8800   31.0266 H   0  0  0  0  0  0  0  0  0  0  0  0
  -13.5470   15.8408   30.1099 H   0  0  0  0  0  0  0  0  0  0  0  0
   -7.0634   16.7413   28.2002 H   0  0  0  0  0  0  0  0  0  0  0  0
   -7.5723   18.4055   28.4411 H   0  0  0  0  0  0  0  0  0  0  0  0
   -7.2572   19.7273   25.9267 H   0  0  0  0  0  0  0  0  0  0  0  0
   -5.6028   20.0115   24.1139 H   0  0  0  0  0  0  0  0  0  0  0  0
   -3.5886   18.5746   24.0346 H   0  0  0  0  0  0  0  0  0  0  0  0
   -3.2444   16.8164   25.7454 H   0  0  0  0  0  0  0  0  0  0  0  0
   -4.9013   16.5202   27.5586 H   0  0  0  0  0  0  0  0  0  0  0  0
   -6.8192   16.0175   25.0160 H   0  0  0  0  0  0  0  0  0  0  0  0
   -5.9464   16.8483   22.8875 H   0  0  0  0  0  0  0  0  0  0  0  0
   -9.9286   16.5144   21.2092 H   0  0  0  0  0  0  0  0  0  0  0  0
  -10.6997   15.6821   23.3845 H   0  0  0  0  0  0  0  0  0  0  0  0
   -7.6961   18.3083   20.3786 H   0  0  0  0  0  0  0  0  0  0  0  0
   -7.8668   16.6641   19.6895 H   0  0  0  0  0  0  0  0  0  0  0  0
  -10.5154   18.0319   35.5530 H   0  0  0  0  0  0  0  0  0  0  0  0
   -9.3030   16.8637   36.1691 H   0  0  0  0  0  0  0  0  0  0  0  0
   -5.7476   17.5079   19.4668 H   0  0  0  0  0  0  0  0  0  0  0  0
  -11.3353   16.6856   37.2257 H   0  0  0  0  0  0  0  0  0  0  0  0
  1 39  1  0  0  0  0
  1 45  1  0  0  0  0
  2  9  1  0  0  0  0
  2 46  1  0  0  0  0
  3 10  1  0  0  0  0
  3 47  1  0  0  0  0
  4  6  1  0  0  0  0
  4 11  1  0  0  0  0
  4 12  1  0  0  0  0
  5  6  1  0  0  0  0
  5  7  1  0  0  0  0
  5  8  1  0  0  0  0
  6  1  1  1  0  0  0
  7 13  1  0  0  0  0
  7 48  1  0  0  0  0
  7 49  1  0  0  0  0
  8 19  1  0  0  0  0
  8  9  1  0  0  0  0
  8 50  1  1  0  0  0
  9 10  1  0  0  0  0
  9 51  1  1  0  0  0
 10 11  1  0  0  0  0
 10 52  1  6  0  0  0
 11 26  1  0  0  0  0
 11 53  1  6  0  0  0
 12 33  1  0  0  0  0
 12 54  1  0  0  0  0
 12 55  1  0  0  0  0
 13 18  2  0  0  0  0
 13 14  1  0  0  0  0
 14 15  2  0  0  0  0
 14 56  1  0  0  0  0
 15 16  1  0  0  0  0
 15 57  1  0  0  0  0
 16 42  1  0  0  0  0
 16 17  2  0  0  0  0
 17 18  1  0  0  0  0
 17 58  1  0  0  0  0
 18 59  1  0  0  0  0
 19 20  1  0  0  0  0
 19 60  1  0  0  0  0
 19 61  1  0  0  0  0
 20 25  2  0  0  0  0
 20 21  1  0  0  0  0
 21 22  2  0  0  0  0
 21 62  1  0  0  0  0
 22 23  1  0  0  0  0
 22 63  1  0  0  0  0
 23 24  2  0  0  0  0
 23 64  1  0  0  0  0
 24 25  1  0  0  0  0
 24 65  1  0  0  0  0
 25 66  1  0  0  0  0
 26 27  1  0  0  0  0
 26 67  1  0  0  0  0
 26 68  1  0  0  0  0
 27 32  2  0  0  0  0
 27 28  1  0  0  0  0
 28 29  2  0  0  0  0
 28 69  1  0  0  0  0
 29 30  1  0  0  0  0
 29 70  1  0  0  0  0
 30 31  2  0  0  0  0
 30 71  1  0  0  0  0
 31 32  1  0  0  0  0
 31 72  1  0  0  0  0
 32 73  1  0  0  0  0
 33 38  2  0  0  0  0
 33 34  1  0  0  0  0
 34 35  2  0  0  0  0
 34 74  1  0  0  0  0
 35 36  1  0  0  0  0
 35 75  1  0  0  0  0
 36 41  1  0  0  0  0
 36 37  2  0  0  0  0
 37 38  1  0  0  0  0
 37 76  1  0  0  0  0
 38 77  1  0  0  0  0
 39 40  3  0  0  0  0
 41 43  1  0  0  0  0
 41 78  1  0  0  0  0
 41 79  1  0  0  0  0
 42 44  1  0  0  0  0
 42 80  1  0  0  0  0
 42 81  1  0  0  0  0
 43 82  1  0  0  0  0
 44 83  1  0  0  0  0
M  END
$$$$
