QUS
 OpenBabel04041916183D

 19 19  0  0  1  0  0  0  0  0999 V2000
   14.8348    1.2135   18.6013 C   0  0  0  0  0  0  0  0  0  0  0  0
   14.6892    1.5391   17.0895 C   0  0  2  0  0  0  0  0  0  0  0  0
   16.0431    2.0867   16.6332 C   0  0  0  0  0  0  0  0  0  0  0  0
   16.5947    0.4241   14.7871 C   0  0  0  0  0  0  0  0  0  0  0  0
   15.8765    1.6130   13.1273 C   0  0  0  0  0  0  0  0  0  0  0  0
   13.5446    2.5418   16.8810 N   0  3  0  0  0  0  0  0  0  0  0  0
   16.4125    1.6978   15.2777 N   0  3  0  0  0  0  0  0  0  0  0  0
   16.2954    0.4043   13.4740 N   0  0  0  0  0  0  0  0  0  0  0  0
   13.9373    1.8060   19.2888 O   0  0  0  0  0  0  0  0  0  0  0  0
   15.7784    0.4792   18.9642 O   0  0  0  0  0  0  0  0  0  0  0  0
   16.9184   -0.5286   15.4847 O   0  0  0  0  0  0  0  0  0  0  0  0
   15.5120    2.0041   12.0224 O   0  0  0  0  0  0  0  0  0  0  0  0
   15.8608    2.4538   14.2238 O   0  0  0  0  0  0  0  0  0  0  0  0
   14.3934    0.6565   16.5192 H   0  0  0  0  0  0  0  0  0  0  0  0
   16.8454    1.7070   17.2692 H   0  0  0  0  0  0  0  0  0  0  0  0
   16.0761    3.1821   16.6850 H   0  0  0  0  0  0  0  0  0  0  0  0
   13.3863    2.7844   15.9004 H   0  0  0  0  0  0  0  0  0  0  0  0
   12.7265    2.1093   17.3207 H   0  0  0  0  0  0  0  0  0  0  0  0
   13.7285    3.3495   17.4847 H   0  0  0  0  0  0  0  0  0  0  0  0
  1  2  1  0  0  0  0
  1  9  2  0  0  0  0
  1 10  1  0  0  0  0
  2  3  1  0  0  0  0
  2  6  1  0  0  0  0
  2 14  1  6  0  0  0
  3  7  1  0  0  0  0
  3 15  1  0  0  0  0
  3 16  1  0  0  0  0
  4 11  2  0  0  0  0
  4  8  1  0  0  0  0
  4  7  1  0  0  0  0
  5 13  1  0  0  0  0
  5 12  2  0  0  0  0
  5  8  1  0  0  0  0
  6 17  1  0  0  0  0
  6 18  1  0  0  0  0
  6 19  1  0  0  0  0
  7 13  1  0  0  0  0
M  CHG  2   6   1   7   1
M  END
$$$$
