QWE
 OpenBabel04041913523D

 82 85  0  0  1  0  0  0  0  0999 V2000
   17.6136  -17.1537   22.5897 C   0  0  0  0  0  0  0  0  0  0  0  0
   18.4679  -17.3481   21.4802 C   0  0  0  0  0  0  0  0  0  0  0  0
   19.8369  -17.0725   21.5474 C   0  0  0  0  0  0  0  0  0  0  0  0
   20.4225  -16.6136   22.7537 C   0  0  0  0  0  0  0  0  0  0  0  0
   19.5874  -16.3526   23.8566 C   0  0  0  0  0  0  0  0  0  0  0  0
   20.1409  -15.7720   25.0282 C   0  0  0  0  0  0  0  0  0  0  0  0
   19.2636  -15.5904   26.1245 C   0  0  0  0  0  0  0  0  0  0  0  0
   17.9321  -15.9600   26.0746 C   0  0  0  0  0  0  0  0  0  0  0  0
   17.3807  -16.4949   24.9282 C   0  0  0  0  0  0  0  0  0  0  0  0
   18.1752  -16.6903   23.7905 C   0  0  0  0  0  0  0  0  0  0  0  0
   21.4574  -15.2746   25.1593 N   0  0  0  0  0  0  0  0  0  0  0  0
   21.8764  -14.2105   24.2394 C   0  0  0  0  0  0  0  0  0  0  0  0
   22.5432  -16.2076   25.4913 C   0  0  0  0  0  0  0  0  0  0  0  0
   15.8624  -17.5361   22.3819 S   0  0  0  0  0  0  0  0  0  0  0  0
   15.7169  -18.0400   21.0198 O   0  0  0  0  0  0  0  0  0  0  0  0
   15.3116  -18.3007   23.4687 O   0  0  0  0  0  0  0  0  0  0  0  0
   14.9838  -16.1084   22.3647 N   0  0  0  0  0  0  0  0  0  0  0  0
   15.2271  -15.1217   21.3127 C   0  0  2  0  0  0  0  0  0  0  0  0
   16.3036  -14.1271   21.7592 C   0  0  0  0  0  0  0  0  0  0  0  0
   16.2889  -13.7013   22.9243 O   0  0  0  0  0  0  0  0  0  0  0  0
   13.9574  -14.3749   20.8887 C   0  0  0  0  0  0  0  0  0  0  0  0
   13.2406  -13.6911   22.0416 C   0  0  0  0  0  0  0  0  0  0  0  0
   11.9055  -13.1294   21.5993 C   0  0  0  0  0  0  0  0  0  0  0  0
   11.1662  -12.6675   22.7732 N   0  0  0  0  0  0  0  0  0  0  0  0
   11.4217  -11.5462   23.4564 C   0  0  0  0  0  0  0  0  0  0  0  0
   12.3428  -10.6676   23.0580 N   0  0  0  0  0  0  0  0  0  0  0  0
   10.7186  -11.3118   24.5641 N   0  0  0  0  0  0  0  0  0  0  0  0
   17.2293  -13.6904   20.8196 N   0  0  0  0  0  0  0  0  0  0  0  0
   17.1458  -14.0396   19.3823 C   0  0  2  0  0  0  0  0  0  0  0  0
   18.5058  -14.4605   18.8484 C   0  0  0  0  0  0  0  0  0  0  0  0
   19.6060  -13.4553   19.2103 C   0  0  0  0  0  0  0  0  0  0  0  0
   19.6602  -13.1279   20.7034 C   0  0  0  0  0  0  0  0  0  0  0  0
   18.2875  -12.7500   21.2506 C   0  0  0  0  0  0  0  0  0  0  0  0
   16.5501  -12.9154   18.5419 C   0  0  0  0  0  0  0  0  0  0  0  0
   15.9492  -13.3847   17.1968 C   0  0  0  0  0  0  0  0  0  0  0  0
   15.8237  -14.9055   14.4147 S   0  0  0  0  0  0  0  0  0  0  0  0
   17.4429  -11.8151   16.2074 O   0  0  0  0  0  0  0  0  0  0  0  0
   17.0608  -15.6088   13.4600 C   0  0  0  0  0  0  0  0  0  0  0  0
   16.9218  -13.6627   14.8479 C   0  0  0  0  0  0  0  0  0  0  0  0
   16.7996  -12.8518   16.0451 C   0  0  0  0  0  0  0  0  0  0  0  0
   18.1431  -14.7588   13.4030 C   0  0  0  0  0  0  0  0  0  0  0  0
   18.0173  -13.5974   14.1193 N   0  0  0  0  0  0  0  0  0  0  0  0
   18.0928  -17.7160   20.5366 H   0  0  0  0  0  0  0  0  0  0  0  0
   20.4965  -17.2115   20.6930 H   0  0  0  0  0  0  0  0  0  0  0  0
   21.4604  -16.4457   22.7720 H   0  0  0  0  0  0  0  0  0  0  0  0
   19.6330  -15.1046   27.0126 H   0  0  0  0  0  0  0  0  0  0  0  0
   17.2741  -15.8205   26.9262 H   0  0  0  0  0  0  0  0  0  0  0  0
   16.3230  -16.7586   24.9345 H   0  0  0  0  0  0  0  0  0  0  0  0
   22.9206  -13.9446   24.4458 H   0  0  0  0  0  0  0  0  0  0  0  0
   21.2726  -13.3101   24.3700 H   0  0  0  0  0  0  0  0  0  0  0  0
   21.8480  -14.4955   23.1844 H   0  0  0  0  0  0  0  0  0  0  0  0
   22.2391  -17.0140   26.1634 H   0  0  0  0  0  0  0  0  0  0  0  0
   23.3383  -15.6462   26.0046 H   0  0  0  0  0  0  0  0  0  0  0  0
   23.0078  -16.6376   24.5949 H   0  0  0  0  0  0  0  0  0  0  0  0
   14.4398  -15.8528   23.1935 H   0  0  0  0  0  0  0  0  0  0  0  0
   15.5311  -15.7208   20.4619 H   0  0  0  0  0  0  0  0  0  0  0  0
   13.2670  -15.0724   20.3987 H   0  0  0  0  0  0  0  0  0  0  0  0
   14.2022  -13.6086   20.1425 H   0  0  0  0  0  0  0  0  0  0  0  0
   13.8583  -12.8873   22.4533 H   0  0  0  0  0  0  0  0  0  0  0  0
   13.0509  -14.3940   22.8571 H   0  0  0  0  0  0  0  0  0  0  0  0
   11.2956  -13.9058   21.1246 H   0  0  0  0  0  0  0  0  0  0  0  0
   12.0137  -12.3140   20.8764 H   0  0  0  0  0  0  0  0  0  0  0  0
   10.4149  -13.2518   23.1089 H   0  0  0  0  0  0  0  0  0  0  0  0
   12.5155   -9.8041   23.5554 H   0  0  0  0  0  0  0  0  0  0  0  0
   10.0459  -11.9868   24.9038 H   0  0  0  0  0  0  0  0  0  0  0  0
   10.8448  -10.4711   25.1116 H   0  0  0  0  0  0  0  0  0  0  0  0
   16.4699  -14.8779   19.2346 H   0  0  0  0  0  0  0  0  0  0  0  0
   18.4452  -14.5801   17.7601 H   0  0  0  0  0  0  0  0  0  0  0  0
   18.7426  -15.4506   19.2490 H   0  0  0  0  0  0  0  0  0  0  0  0
   19.4541  -12.5195   18.6593 H   0  0  0  0  0  0  0  0  0  0  0  0
   20.5713  -13.8490   18.8818 H   0  0  0  0  0  0  0  0  0  0  0  0
   20.3731  -12.3110   20.8869 H   0  0  0  0  0  0  0  0  0  0  0  0
   20.0446  -13.9882   21.2601 H   0  0  0  0  0  0  0  0  0  0  0  0
   18.3517  -12.6992   22.3484 H   0  0  0  0  0  0  0  0  0  0  0  0
   18.0235  -11.7372   20.9202 H   0  0  0  0  0  0  0  0  0  0  0  0
   17.3566  -12.2009   18.3846 H   0  0  0  0  0  0  0  0  0  0  0  0
   15.7818  -12.3914   19.1137 H   0  0  0  0  0  0  0  0  0  0  0  0
   14.9362  -12.9809   17.0808 H   0  0  0  0  0  0  0  0  0  0  0  0
   15.8735  -14.4804   17.1565 H   0  0  0  0  0  0  0  0  0  0  0  0
   16.9574  -16.5788   13.0056 H   0  0  0  0  0  0  0  0  0  0  0  0
   19.0664  -14.9610   12.8756 H   0  0  0  0  0  0  0  0  0  0  0  0
   12.9059  -10.8371   22.2359 H   0  0  0  0  0  0  0  0  0  0  0  0
  1 14  1  0  0  0  0
  1 10  2  0  0  0  0
  1  2  1  0  0  0  0
  2  3  2  0  0  0  0
  2 43  1  0  0  0  0
  3  4  1  0  0  0  0
  3 44  1  0  0  0  0
  4  5  2  0  0  0  0
  4 45  1  0  0  0  0
  5 10  1  0  0  0  0
  5  6  1  0  0  0  0
  6 11  1  0  0  0  0
  6  7  2  0  0  0  0
  7  8  1  0  0  0  0
  7 46  1  0  0  0  0
  8  9  2  0  0  0  0
  8 47  1  0  0  0  0
  9 10  1  0  0  0  0
  9 48  1  0  0  0  0
 11 13  1  0  0  0  0
 11 12  1  0  0  0  0
 12 49  1  0  0  0  0
 12 50  1  0  0  0  0
 12 51  1  0  0  0  0
 13 52  1  0  0  0  0
 13 53  1  0  0  0  0
 13 54  1  0  0  0  0
 14 16  2  0  0  0  0
 14 15  2  0  0  0  0
 14 17  1  0  0  0  0
 17 18  1  0  0  0  0
 17 55  1  0  0  0  0
 18 19  1  0  0  0  0
 18 21  1  0  0  0  0
 18 56  1  6  0  0  0
 19 20  2  0  0  0  0
 19 28  1  0  0  0  0
 21 22  1  0  0  0  0
 21 57  1  0  0  0  0
 21 58  1  0  0  0  0
 22 23  1  0  0  0  0
 22 59  1  0  0  0  0
 22 60  1  0  0  0  0
 23 24  1  0  0  0  0
 23 61  1  0  0  0  0
 23 62  1  0  0  0  0
 24 25  1  0  0  0  0
 24 63  1  0  0  0  0
 25 26  2  0  0  0  0
 25 27  1  0  0  0  0
 26 64  1  0  0  0  0
 26 82  1  0  0  0  0
 27 65  1  0  0  0  0
 27 66  1  0  0  0  0
 28 33  1  0  0  0  0
 28 29  1  0  0  0  0
 29 34  1  0  0  0  0
 29 30  1  0  0  0  0
 29 67  1  6  0  0  0
 30 31  1  0  0  0  0
 30 68  1  0  0  0  0
 30 69  1  0  0  0  0
 31 32  1  0  0  0  0
 31 70  1  0  0  0  0
 31 71  1  0  0  0  0
 32 33  1  0  0  0  0
 32 72  1  0  0  0  0
 32 73  1  0  0  0  0
 33 74  1  0  0  0  0
 33 75  1  0  0  0  0
 34 35  1  0  0  0  0
 34 76  1  0  0  0  0
 34 77  1  0  0  0  0
 35 40  1  0  0  0  0
 35 78  1  0  0  0  0
 35 79  1  0  0  0  0
 36 39  1  0  0  0  0
 36 38  1  0  0  0  0
 37 40  2  0  0  0  0
 38 41  2  0  0  0  0
 38 80  1  0  0  0  0
 39 42  2  0  0  0  0
 39 40  1  0  0  0  0
 41 42  1  0  0  0  0
 41 81  1  0  0  0  0
M  END
$$$$
