R11
 OpenBabel04041914433D

 58 62  0  0  0  0  0  0  0  0999 V2000
   10.1792  -12.7330   23.7895 N   0  0  0  0  0  0  0  0  0  0  0  0
   10.8504  -10.6735   24.3843 N   0  0  0  0  0  0  0  0  0  0  0  0
   11.0220  -11.7424   23.6200 C   0  0  0  0  0  0  0  0  0  0  0  0
   12.1123  -11.7938   22.6049 C   0  0  0  0  0  0  0  0  0  0  0  0
   12.2640  -12.8791   21.7295 C   0  0  0  0  0  0  0  0  0  0  0  0
   13.2649  -12.8920   20.7333 C   0  0  0  0  0  0  0  0  0  0  0  0
   14.1702  -11.8355   20.5872 C   0  0  0  0  0  0  0  0  0  0  0  0
   14.0646  -10.7816   21.4868 C   0  0  0  0  0  0  0  0  0  0  0  0
   13.0448  -10.7512   22.4623 C   0  0  0  0  0  0  0  0  0  0  0  0
   15.1093  -11.8425   19.5564 N   0  0  0  0  0  0  0  0  0  0  0  0
   16.5395  -11.5647   19.7896 C   0  0  0  0  0  0  0  0  0  0  0  0
   16.8360  -13.3560   21.5560 N   0  0  0  0  0  0  0  0  0  0  0  0
   17.3355  -12.5178   20.6570 C   0  0  0  0  0  0  0  0  0  0  0  0
   18.7189  -12.6085   20.6531 N   0  3  0  0  0  0  0  0  0  0  0  0
   19.1009  -13.5464   21.5906 C   0  0  0  0  0  0  0  0  0  0  0  0
   17.9063  -13.9905   22.1407 C   0  0  0  0  0  0  0  0  0  0  0  0
   20.3434  -14.0480   22.0018 C   0  0  0  0  0  0  0  0  0  0  0  0
   20.3427  -15.0195   23.0110 C   0  0  0  0  0  0  0  0  0  0  0  0
   19.1620  -15.4614   23.6302 C   0  0  0  0  0  0  0  0  0  0  0  0
   17.9268  -14.9584   23.1617 C   0  0  0  0  0  0  0  0  0  0  0  0
   19.6698  -11.8704   19.8525 C   0  0  0  0  0  0  0  0  0  0  0  0
   19.1868  -16.4844   24.7607 C   0  0  0  0  0  0  0  0  0  0  0  0
   20.3945  -16.4372   25.5839 N   0  3  0  0  0  0  0  0  0  0  0  0
   21.3092  -17.4526   25.7812 C   0  0  0  0  0  0  0  0  0  0  0  0
   22.3071  -17.0435   26.5406 N   0  0  0  0  0  0  0  0  0  0  0  0
   22.0409  -15.7434   26.8620 C   0  0  0  0  0  0  0  0  0  0  0  0
   20.8279  -15.3391   26.2931 C   0  0  0  0  0  0  0  0  0  0  0  0
   22.7972  -14.8378   27.6200 C   0  0  0  0  0  0  0  0  0  0  0  0
   22.3078  -13.5357   27.7921 C   0  0  0  0  0  0  0  0  0  0  0  0
   21.0973  -13.1470   27.2294 C   0  0  0  0  0  0  0  0  0  0  0  0
   20.3269  -14.0384   26.4698 C   0  0  0  0  0  0  0  0  0  0  0  0
   21.2080  -18.8169   25.2079 C   0  0  0  0  0  0  0  0  0  0  0  0
    9.4274  -12.7082   24.4700 H   0  0  0  0  0  0  0  0  0  0  0  0
   11.4531   -9.8631   24.3159 H   0  0  0  0  0  0  0  0  0  0  0  0
   10.1103  -10.6083   25.0705 H   0  0  0  0  0  0  0  0  0  0  0  0
   11.6168  -13.7470   21.7603 H   0  0  0  0  0  0  0  0  0  0  0  0
   13.3476  -13.7636   20.0853 H   0  0  0  0  0  0  0  0  0  0  0  0
   14.7381   -9.9379   21.4099 H   0  0  0  0  0  0  0  0  0  0  0  0
   13.0287   -9.8680   23.0895 H   0  0  0  0  0  0  0  0  0  0  0  0
   14.9640  -12.5737   18.8595 H   0  0  0  0  0  0  0  0  0  0  0  0
   16.6591  -10.5490   20.1810 H   0  0  0  0  0  0  0  0  0  0  0  0
   16.9960  -11.5576   18.7936 H   0  0  0  0  0  0  0  0  0  0  0  0
   21.2767  -13.6996   21.5739 H   0  0  0  0  0  0  0  0  0  0  0  0
   21.3134  -15.4081   23.3309 H   0  0  0  0  0  0  0  0  0  0  0  0
   16.9839  -15.2857   23.5867 H   0  0  0  0  0  0  0  0  0  0  0  0
   19.1628  -11.1720   19.1831 H   0  0  0  0  0  0  0  0  0  0  0  0
   20.2566  -12.5802   19.2611 H   0  0  0  0  0  0  0  0  0  0  0  0
   20.3338  -11.3101   20.5193 H   0  0  0  0  0  0  0  0  0  0  0  0
   19.0851  -17.4892   24.3366 H   0  0  0  0  0  0  0  0  0  0  0  0
   18.3493  -16.3172   25.4488 H   0  0  0  0  0  0  0  0  0  0  0  0
   23.7351  -15.1478   28.0557 H   0  0  0  0  0  0  0  0  0  0  0  0
   22.8880  -12.8210   28.3692 H   0  0  0  0  0  0  0  0  0  0  0  0
   20.7436  -12.1262   27.3583 H   0  0  0  0  0  0  0  0  0  0  0  0
   19.3909  -13.7214   26.0116 H   0  0  0  0  0  0  0  0  0  0  0  0
   22.0758  -19.4154   25.5080 H   0  0  0  0  0  0  0  0  0  0  0  0
   21.1894  -18.7855   24.1143 H   0  0  0  0  0  0  0  0  0  0  0  0
   20.3112  -19.3293   25.5700 H   0  0  0  0  0  0  0  0  0  0  0  0
   10.2465  -13.5830   23.2449 H   0  0  0  0  0  0  0  0  0  0  0  0
  1  3  2  0  0  0  0
  1 33  1  0  0  0  0
  1 58  1  0  0  0  0
  2  3  1  0  0  0  0
  2 34  1  0  0  0  0
  2 35  1  0  0  0  0
  3  4  1  0  0  0  0
  4  5  2  0  0  0  0
  4  9  1  0  0  0  0
  5  6  1  0  0  0  0
  5 36  1  0  0  0  0
  6  7  2  0  0  0  0
  6 37  1  0  0  0  0
  7  8  1  0  0  0  0
  7 10  1  0  0  0  0
  8  9  2  0  0  0  0
  8 38  1  0  0  0  0
  9 39  1  0  0  0  0
 10 11  1  0  0  0  0
 10 40  1  0  0  0  0
 11 13  1  0  0  0  0
 11 41  1  0  0  0  0
 11 42  1  0  0  0  0
 12 16  1  0  0  0  0
 12 13  1  0  0  0  0
 13 14  2  0  0  0  0
 14 15  1  0  0  0  0
 14 21  1  0  0  0  0
 15 16  2  0  0  0  0
 15 17  1  0  0  0  0
 16 20  1  0  0  0  0
 17 18  2  0  0  0  0
 17 43  1  0  0  0  0
 18 19  1  0  0  0  0
 18 44  1  0  0  0  0
 19 20  2  0  0  0  0
 19 22  1  0  0  0  0
 20 45  1  0  0  0  0
 21 46  1  0  0  0  0
 21 47  1  0  0  0  0
 21 48  1  0  0  0  0
 22 23  1  0  0  0  0
 22 49  1  0  0  0  0
 22 50  1  0  0  0  0
 23 24  2  0  0  0  0
 23 27  1  0  0  0  0
 24 25  1  0  0  0  0
 24 32  1  0  0  0  0
 25 26  1  0  0  0  0
 26 27  2  0  0  0  0
 26 28  1  0  0  0  0
 27 31  1  0  0  0  0
 28 29  2  0  0  0  0
 28 51  1  0  0  0  0
 29 30  1  0  0  0  0
 29 52  1  0  0  0  0
 30 31  2  0  0  0  0
 30 53  1  0  0  0  0
 31 54  1  0  0  0  0
 32 55  1  0  0  0  0
 32 56  1  0  0  0  0
 32 57  1  0  0  0  0
M  CHG  2  14   1  23   1
M  END
$$$$
