R18
 OpenBabel04041914223D

 45 48  0  0  1  0  0  0  0  0999 V2000
    0.4172   28.0869    4.1059 C   0  0  0  0  0  0  0  0  0  0  0  0
    1.1769   26.9900    4.8324 C   0  0  0  0  0  0  0  0  0  0  0  0
    2.6544   27.1283    4.5307 C   0  0  0  0  0  0  0  0  0  0  0  0
    3.1781   28.4905    4.7787 C   0  0  0  0  0  0  0  0  0  0  0  0
    2.3707   29.5473    4.7865 C   0  0  0  0  0  0  0  0  0  0  0  0
    2.9695   30.8989    5.1126 C   0  0  0  0  0  0  0  0  0  0  0  0
    2.2034   32.0268    4.4606 C   0  0  0  0  0  0  0  0  0  0  0  0
    0.7453   31.9437    4.9059 C   0  0  2  0  0  0  0  0  0  0  0  0
    0.1344   30.5786    4.5429 C   0  0  0  0  0  0  0  0  0  0  0  0
    0.9168   29.4825    4.4722 C   0  0  0  0  0  0  0  0  0  0  0  0
   -1.3106   30.5795    4.2472 C   0  0  0  0  0  0  0  0  0  0  0  0
   -2.0957   31.6753    4.3015 C   0  0  0  0  0  0  0  0  0  0  0  0
   -1.5333   33.0267    4.6739 C   0  0  1  0  0  0  0  0  0  0  0  0
   -0.0444   33.0638    4.2719 C   0  0  1  0  0  0  0  0  0  0  0  0
    0.3807   34.5015    4.5595 C   0  0  0  0  0  0  0  0  0  0  0  0
   -0.8997   35.3183    4.2929 C   0  0  0  0  0  0  0  0  0  0  0  0
   -2.0022   34.2904    3.9169 C   0  0  1  0  0  0  0  0  0  0  0  0
   -1.7316   33.2187    6.1840 C   0  0  0  0  0  0  0  0  0  0  0  0
   -2.0449   34.0607    2.4099 C   0  0  0  0  0  0  0  0  0  0  0  0
    3.3846   26.2027    4.1821 O   0  0  0  0  0  0  0  0  0  0  0  0
   -3.2487   34.8083    4.3475 O   0  0  0  0  0  0  0  0  0  0  0  0
   -0.6393   27.9688    4.3634 H   0  0  0  0  0  0  0  0  0  0  0  0
    0.5244   27.9340    3.0243 H   0  0  0  0  0  0  0  0  0  0  0  0
    0.8460   26.0003    4.5054 H   0  0  0  0  0  0  0  0  0  0  0  0
    1.0359   27.0824    5.9144 H   0  0  0  0  0  0  0  0  0  0  0  0
    4.2458   28.5665    5.0031 H   0  0  0  0  0  0  0  0  0  0  0  0
    4.0131   30.9366    4.7754 H   0  0  0  0  0  0  0  0  0  0  0  0
    2.9591   31.0420    6.1997 H   0  0  0  0  0  0  0  0  0  0  0  0
    2.2758   31.9400    3.3676 H   0  0  0  0  0  0  0  0  0  0  0  0
    2.6430   32.9882    4.7513 H   0  0  0  0  0  0  0  0  0  0  0  0
    0.6960   32.0650    5.9914 H   0  0  0  0  0  0  0  0  0  0  0  0
   -1.7852   29.6390    3.9883 H   0  0  0  0  0  0  0  0  0  0  0  0
   -3.1621   31.5825    4.1061 H   0  0  0  0  0  0  0  0  0  0  0  0
    0.0579   32.9027    3.1934 H   0  0  0  0  0  0  0  0  0  0  0  0
    1.1960   34.8299    3.9075 H   0  0  0  0  0  0  0  0  0  0  0  0
    0.7170   34.6177    5.5982 H   0  0  0  0  0  0  0  0  0  0  0  0
   -0.7383   36.0402    3.5042 H   0  0  0  0  0  0  0  0  0  0  0  0
   -1.1923   35.8505    5.2065 H   0  0  0  0  0  0  0  0  0  0  0  0
   -1.3953   32.3382    6.7339 H   0  0  0  0  0  0  0  0  0  0  0  0
   -2.7829   33.3944    6.4214 H   0  0  0  0  0  0  0  0  0  0  0  0
   -1.1610   34.0717    6.5604 H   0  0  0  0  0  0  0  0  0  0  0  0
   -2.8261   33.3388    2.1548 H   0  0  0  0  0  0  0  0  0  0  0  0
   -1.1027   33.6790    2.0218 H   0  0  0  0  0  0  0  0  0  0  0  0
   -2.2472   34.9951    1.8843 H   0  0  0  0  0  0  0  0  0  0  0  0
   -3.9546   34.1745    4.0985 H   0  0  0  0  0  0  0  0  0  0  0  0
  1  2  1  0  0  0  0
  1 10  1  0  0  0  0
  1 22  1  0  0  0  0
  1 23  1  0  0  0  0
  2  3  1  0  0  0  0
  2 24  1  0  0  0  0
  2 25  1  0  0  0  0
  3  4  1  0  0  0  0
  3 20  2  0  0  0  0
  4  5  2  0  0  0  0
  4 26  1  0  0  0  0
  5  6  1  0  0  0  0
  5 10  1  0  0  0  0
  6  7  1  0  0  0  0
  6 27  1  0  0  0  0
  6 28  1  0  0  0  0
  7  8  1  0  0  0  0
  7 29  1  0  0  0  0
  7 30  1  0  0  0  0
  8  9  1  0  0  0  0
  8 14  1  0  0  0  0
  8 31  1  1  0  0  0
  9 10  2  0  0  0  0
  9 11  1  0  0  0  0
 11 12  2  0  0  0  0
 11 32  1  0  0  0  0
 12 13  1  0  0  0  0
 12 33  1  0  0  0  0
 13 14  1  0  0  0  0
 13 17  1  0  0  0  0
 13 18  1  1  0  0  0
 14 15  1  0  0  0  0
 14 34  1  6  0  0  0
 15 16  1  0  0  0  0
 15 35  1  0  0  0  0
 15 36  1  0  0  0  0
 16 17  1  0  0  0  0
 16 37  1  0  0  0  0
 16 38  1  0  0  0  0
 17 19  1  6  0  0  0
 17 21  1  0  0  0  0
 18 39  1  0  0  0  0
 18 40  1  0  0  0  0
 18 41  1  0  0  0  0
 19 42  1  0  0  0  0
 19 43  1  0  0  0  0
 19 44  1  0  0  0  0
 21 45  1  0  0  0  0
M  END
$$$$
