R18
 OpenBabel04041917413D

 45 48  0  0  1  0  0  0  0  0999 V2000
   27.2457    5.3010    3.7198 C   0  0  0  0  0  0  0  0  0  0  0  0
   26.4623    6.5425    4.1379 C   0  0  0  0  0  0  0  0  0  0  0  0
   24.9720    6.4021    3.9546 C   0  0  0  0  0  0  0  0  0  0  0  0
   24.3993    5.0765    4.2932 C   0  0  0  0  0  0  0  0  0  0  0  0
   25.1449    3.9598    4.3681 C   0  0  0  0  0  0  0  0  0  0  0  0
   24.4609    2.6305    4.7326 C   0  0  0  0  0  0  0  0  0  0  0  0
   25.1819    1.4505    4.0747 C   0  0  0  0  0  0  0  0  0  0  0  0
   26.6570    1.4447    4.4993 C   0  0  2  0  0  0  0  0  0  0  0  0
   27.3389    2.7909    4.1600 C   0  0  0  0  0  0  0  0  0  0  0  0
   26.6078    3.9528    4.0786 C   0  0  0  0  0  0  0  0  0  0  0  0
   28.7983    2.7397    3.9329 C   0  0  0  0  0  0  0  0  0  0  0  0
   29.5422    1.6179    4.0107 C   0  0  0  0  0  0  0  0  0  0  0  0
   28.9228    0.2712    4.3284 C   0  0  1  0  0  0  0  0  0  0  0  0
   27.4327    0.2837    3.8650 C   0  0  1  0  0  0  0  0  0  0  0  0
   26.9595   -1.1551    4.1235 C   0  0  0  0  0  0  0  0  0  0  0  0
   28.2415   -1.9841    3.8502 C   0  0  0  0  0  0  0  0  0  0  0  0
   29.4039   -0.9899    3.5519 C   0  0  1  0  0  0  0  0  0  0  0  0
   29.0149    0.0393    5.8605 C   0  0  0  0  0  0  0  0  0  0  0  0
   29.4879   -0.7992    2.0307 C   0  0  0  0  0  0  0  0  0  0  0  0
   24.2336    7.3146    3.6707 O   0  0  0  0  0  0  0  0  0  0  0  0
   30.6146   -1.5582    4.0481 O   0  0  0  0  0  0  0  0  0  0  0  0
   28.2369    5.3931    4.1977 H   0  0  0  0  0  0  0  0  0  0  0  0
   27.4120    5.3602    2.6313 H   0  0  0  0  0  0  0  0  0  0  0  0
   26.7906    7.4054    3.5439 H   0  0  0  0  0  0  0  0  0  0  0  0
   26.6488    6.7463    5.1973 H   0  0  0  0  0  0  0  0  0  0  0  0
   23.3276    5.0632    4.4977 H   0  0  0  0  0  0  0  0  0  0  0  0
   23.4048    2.6299    4.4101 H   0  0  0  0  0  0  0  0  0  0  0  0
   24.4567    2.4871    5.8253 H   0  0  0  0  0  0  0  0  0  0  0  0
   25.1077    1.5552    2.9837 H   0  0  0  0  0  0  0  0  0  0  0  0
   24.6984    0.5070    4.3597 H   0  0  0  0  0  0  0  0  0  0  0  0
   26.6857    1.3048    5.5837 H   0  0  0  0  0  0  0  0  0  0  0  0
   29.3220    3.6687    3.7080 H   0  0  0  0  0  0  0  0  0  0  0  0
   30.6217    1.6899    3.8697 H   0  0  0  0  0  0  0  0  0  0  0  0
   27.3952    0.4371    2.7798 H   0  0  0  0  0  0  0  0  0  0  0  0
   26.1308   -1.4614    3.4689 H   0  0  0  0  0  0  0  0  0  0  0  0
   26.6069   -1.2955    5.1597 H   0  0  0  0  0  0  0  0  0  0  0  0
   28.0789   -2.6550    3.0019 H   0  0  0  0  0  0  0  0  0  0  0  0
   28.4971   -2.5865    4.7260 H   0  0  0  0  0  0  0  0  0  0  0  0
   28.6651    0.9211    6.4091 H   0  0  0  0  0  0  0  0  0  0  0  0
   30.0365   -0.1791    6.1869 H   0  0  0  0  0  0  0  0  0  0  0  0
   28.3861   -0.8012    6.1758 H   0  0  0  0  0  0  0  0  0  0  0  0
   30.2899   -0.1105    1.7488 H   0  0  0  0  0  0  0  0  0  0  0  0
   28.5508   -0.4108    1.6267 H   0  0  0  0  0  0  0  0  0  0  0  0
   29.6665   -1.7630    1.5399 H   0  0  0  0  0  0  0  0  0  0  0  0
   31.3705   -0.9663    3.8751 H   0  0  0  0  0  0  0  0  0  0  0  0
  1  2  1  0  0  0  0
  1 10  1  0  0  0  0
  1 22  1  0  0  0  0
  1 23  1  0  0  0  0
  2  3  1  0  0  0  0
  2 24  1  0  0  0  0
  2 25  1  0  0  0  0
  3  4  1  0  0  0  0
  3 20  2  0  0  0  0
  4  5  2  0  0  0  0
  4 26  1  0  0  0  0
  5  6  1  0  0  0  0
  5 10  1  0  0  0  0
  6  7  1  0  0  0  0
  6 27  1  0  0  0  0
  6 28  1  0  0  0  0
  7  8  1  0  0  0  0
  7 29  1  0  0  0  0
  7 30  1  0  0  0  0
  8  9  1  0  0  0  0
  8 14  1  0  0  0  0
  8 31  1  1  0  0  0
  9 10  2  0  0  0  0
  9 11  1  0  0  0  0
 11 12  2  0  0  0  0
 11 32  1  0  0  0  0
 12 13  1  0  0  0  0
 12 33  1  0  0  0  0
 13 14  1  0  0  0  0
 13 17  1  0  0  0  0
 13 18  1  1  0  0  0
 14 15  1  0  0  0  0
 14 34  1  6  0  0  0
 15 16  1  0  0  0  0
 15 35  1  0  0  0  0
 15 36  1  0  0  0  0
 16 17  1  0  0  0  0
 16 37  1  0  0  0  0
 16 38  1  0  0  0  0
 17 19  1  6  0  0  0
 17 21  1  0  0  0  0
 18 39  1  0  0  0  0
 18 40  1  0  0  0  0
 18 41  1  0  0  0  0
 19 42  1  0  0  0  0
 19 43  1  0  0  0  0
 19 44  1  0  0  0  0
 21 45  1  0  0  0  0
M  END
$$$$
