R36
 OpenBabel04041915303D

 80 82  0  0  1  0  0  0  0  0999 V2000
   34.0779   28.4784    9.2559 C   0  0  0  0  0  0  0  0  0  0  0  0
   34.3287   29.6777    9.9396 C   0  0  0  0  0  0  0  0  0  0  0  0
   35.6483   30.1635   10.0065 C   0  0  0  0  0  0  0  0  0  0  0  0
   36.6860   29.4630    9.3565 C   0  0  0  0  0  0  0  0  0  0  0  0
   36.4270   28.2890    8.6610 C   0  0  0  0  0  0  0  0  0  0  0  0
   35.1275   27.8023    8.6072 C   0  0  0  0  0  0  0  0  0  0  0  0
   35.9904   31.4399   10.7055 C   0  0  0  0  0  0  0  0  0  0  0  0
   32.6928   27.9185    9.1709 C   0  0  0  0  0  0  0  0  0  0  0  0
   30.4339   37.5352   14.5584 C   0  0  0  0  0  0  0  0  0  0  0  0
   30.7403   37.5646   15.9216 C   0  0  0  0  0  0  0  0  0  0  0  0
   30.0571   38.4217   16.7754 C   0  0  0  0  0  0  0  0  0  0  0  0
   29.0587   39.2571   16.2682 C   0  0  0  0  0  0  0  0  0  0  0  0
   28.7340   39.2566   14.9023 C   0  0  0  0  0  0  0  0  0  0  0  0
   27.7765   40.1405   14.4193 N   0  0  0  0  0  0  0  0  0  0  0  0
   29.4289   38.3695   14.0514 C   0  0  0  0  0  0  0  0  0  0  0  0
   33.2864   30.2807   10.6215 O   0  0  0  0  0  0  0  0  0  0  0  0
   32.6918   31.4122    9.9567 C   0  0  0  0  0  0  0  0  0  0  0  0
   31.7105   32.2495   10.8241 C   0  0  0  0  0  0  0  0  0  0  0  0
   31.1378   33.2465   10.4129 O   0  0  0  0  0  0  0  0  0  0  0  0
   31.5516   31.8220   12.1130 N   0  0  0  0  0  0  0  0  0  0  0  0
   31.3214   32.5857   14.4089 C   0  0  1  0  0  0  0  0  0  0  0  0
   31.6735   31.2419   14.8092 O   0  0  0  0  0  0  0  0  0  0  0  0
   32.6441   33.3120   14.3549 C   0  0  0  0  0  0  0  0  0  0  0  0
   32.6701   34.6220   13.6174 C   0  0  2  0  0  0  0  0  0  0  0  0
   34.1160   35.0805   13.4082 C   0  0  0  0  0  0  0  0  0  0  0  0
   35.0500   35.4241   14.5773 C   0  0  0  0  0  0  0  0  0  0  0  0
   36.2137   36.2164   13.9842 C   0  0  0  0  0  0  0  0  0  0  0  0
   35.6572   34.2135   15.2635 C   0  0  0  0  0  0  0  0  0  0  0  0
   31.8463   35.5857   14.2916 N   0  0  0  0  0  0  0  0  0  0  0  0
   31.2170   36.6275   13.6426 C   0  0  0  0  0  0  0  0  0  0  0  0
   31.2810   36.8118   12.4650 O   0  0  0  0  0  0  0  0  0  0  0  0
   30.6563   32.5162   13.0335 C   0  0  2  0  0  0  0  0  0  0  0  0
   29.3328   31.7795   13.1499 C   0  0  0  0  0  0  0  0  0  0  0  0
   28.7023   31.4038   11.8351 C   0  0  0  0  0  0  0  0  0  0  0  0
   27.9756   32.3440   11.1042 C   0  0  0  0  0  0  0  0  0  0  0  0
   27.3356   31.9686    9.9204 C   0  0  0  0  0  0  0  0  0  0  0  0
   27.4339   30.6606    9.4442 C   0  0  0  0  0  0  0  0  0  0  0  0
   28.1845   29.7247   10.1563 C   0  0  0  0  0  0  0  0  0  0  0  0
   28.8192   30.0966   11.3452 C   0  0  0  0  0  0  0  0  0  0  0  0
   37.7112   29.8340    9.3786 H   0  0  0  0  0  0  0  0  0  0  0  0
   37.2337   27.7578    8.1640 H   0  0  0  0  0  0  0  0  0  0  0  0
   34.9357   26.8871    8.0514 H   0  0  0  0  0  0  0  0  0  0  0  0
   35.0976   31.8610   11.1691 H   0  0  0  0  0  0  0  0  0  0  0  0
   36.3851   32.1660    9.9846 H   0  0  0  0  0  0  0  0  0  0  0  0
   36.7368   31.2652   11.4866 H   0  0  0  0  0  0  0  0  0  0  0  0
   32.6865   26.9966    8.5777 H   0  0  0  0  0  0  0  0  0  0  0  0
   32.0306   28.6452    8.6903 H   0  0  0  0  0  0  0  0  0  0  0  0
   32.3218   27.6933   10.1743 H   0  0  0  0  0  0  0  0  0  0  0  0
   31.5194   36.9395   16.3357 H   0  0  0  0  0  0  0  0  0  0  0  0
   30.2986   38.4508   17.8360 H   0  0  0  0  0  0  0  0  0  0  0  0
   28.5406   39.9246   16.9599 H   0  0  0  0  0  0  0  0  0  0  0  0
   27.5187   40.1568   13.4392 H   0  0  0  0  0  0  0  0  0  0  0  0
   27.3137   40.8055   15.0310 H   0  0  0  0  0  0  0  0  0  0  0  0
   29.1989   38.3356   12.9887 H   0  0  0  0  0  0  0  0  0  0  0  0
   32.1074   31.0711    9.0981 H   0  0  0  0  0  0  0  0  0  0  0  0
   33.4693   32.1062    9.6311 H   0  0  0  0  0  0  0  0  0  0  0  0
   32.0176   30.9799   12.4269 H   0  0  0  0  0  0  0  0  0  0  0  0
   30.6463   33.0301   15.1569 H   0  0  0  0  0  0  0  0  0  0  0  0
   32.1608   31.2927   15.6438 H   0  0  0  0  0  0  0  0  0  0  0  0
   33.3547   32.6329   13.8717 H   0  0  0  0  0  0  0  0  0  0  0  0
   32.9498   33.4798   15.3865 H   0  0  0  0  0  0  0  0  0  0  0  0
   32.2564   34.4753   12.6156 H   0  0  0  0  0  0  0  0  0  0  0  0
   34.0616   35.9745   12.7844 H   0  0  0  0  0  0  0  0  0  0  0  0
   34.6141   34.2833   12.8413 H   0  0  0  0  0  0  0  0  0  0  0  0
   34.5390   36.0403   15.3201 H   0  0  0  0  0  0  0  0  0  0  0  0
   36.9272   36.4862   14.7662 H   0  0  0  0  0  0  0  0  0  0  0  0
   35.8298   37.1255   13.5142 H   0  0  0  0  0  0  0  0  0  0  0  0
   36.7255   35.6104   13.2237 H   0  0  0  0  0  0  0  0  0  0  0  0
   34.8765   33.6171   15.7188 H   0  0  0  0  0  0  0  0  0  0  0  0
   36.3520   34.5341   16.0499 H   0  0  0  0  0  0  0  0  0  0  0  0
   36.2061   33.5998   14.5401 H   0  0  0  0  0  0  0  0  0  0  0  0
   31.7194   35.4958   15.2852 H   0  0  0  0  0  0  0  0  0  0  0  0
   30.4673   33.5278   12.6615 H   0  0  0  0  0  0  0  0  0  0  0  0
   28.6325   32.4167   13.6996 H   0  0  0  0  0  0  0  0  0  0  0  0
   29.4923   30.8629   13.7264 H   0  0  0  0  0  0  0  0  0  0  0  0
   27.9056   33.3643   11.4667 H   0  0  0  0  0  0  0  0  0  0  0  0
   26.7558   32.7034    9.3698 H   0  0  0  0  0  0  0  0  0  0  0  0
   26.9332   30.3775    8.5222 H   0  0  0  0  0  0  0  0  0  0  0  0
   28.2664   28.7080    9.7836 H   0  0  0  0  0  0  0  0  0  0  0  0
   29.4022   29.3771   11.9121 H   0  0  0  0  0  0  0  0  0  0  0  0
  1  8  1  0  0  0  0
  1  6  2  0  0  0  0
  1  2  1  0  0  0  0
  2 16  1  0  0  0  0
  2  3  2  0  0  0  0
  3  7  1  0  0  0  0
  3  4  1  0  0  0  0
  4  5  2  0  0  0  0
  4 40  1  0  0  0  0
  5  6  1  0  0  0  0
  5 41  1  0  0  0  0
  6 42  1  0  0  0  0
  7 43  1  0  0  0  0
  7 44  1  0  0  0  0
  7 45  1  0  0  0  0
  8 46  1  0  0  0  0
  8 47  1  0  0  0  0
  8 48  1  0  0  0  0
  9 30  1  0  0  0  0
  9 15  2  0  0  0  0
  9 10  1  0  0  0  0
 10 11  2  0  0  0  0
 10 49  1  0  0  0  0
 11 12  1  0  0  0  0
 11 50  1  0  0  0  0
 12 13  2  0  0  0  0
 12 51  1  0  0  0  0
 13 15  1  0  0  0  0
 13 14  1  0  0  0  0
 14 52  1  0  0  0  0
 14 53  1  0  0  0  0
 15 54  1  0  0  0  0
 16 17  1  0  0  0  0
 17 18  1  0  0  0  0
 17 55  1  0  0  0  0
 17 56  1  0  0  0  0
 18 20  1  0  0  0  0
 18 19  2  0  0  0  0
 20 32  1  0  0  0  0
 20 57  1  0  0  0  0
 21 32  1  0  0  0  0
 21 23  1  0  0  0  0
 21 22  1  0  0  0  0
 21 58  1  1  0  0  0
 22 59  1  0  0  0  0
 23 24  1  0  0  0  0
 23 60  1  0  0  0  0
 23 61  1  0  0  0  0
 24 29  1  0  0  0  0
 24 25  1  0  0  0  0
 24 62  1  6  0  0  0
 25 26  1  0  0  0  0
 25 63  1  0  0  0  0
 25 64  1  0  0  0  0
 26 28  1  0  0  0  0
 26 27  1  0  0  0  0
 26 65  1  0  0  0  0
 27 66  1  0  0  0  0
 27 67  1  0  0  0  0
 27 68  1  0  0  0  0
 28 69  1  0  0  0  0
 28 70  1  0  0  0  0
 28 71  1  0  0  0  0
 29 30  1  0  0  0  0
 29 72  1  0  0  0  0
 30 31  2  0  0  0  0
 32 33  1  0  0  0  0
 32 73  1  6  0  0  0
 33 34  1  0  0  0  0
 33 74  1  0  0  0  0
 33 75  1  0  0  0  0
 34 39  2  0  0  0  0
 34 35  1  0  0  0  0
 35 36  2  0  0  0  0
 35 76  1  0  0  0  0
 36 37  1  0  0  0  0
 36 77  1  0  0  0  0
 37 38  2  0  0  0  0
 37 78  1  0  0  0  0
 38 39  1  0  0  0  0
 38 79  1  0  0  0  0
 39 80  1  0  0  0  0
M  END
$$$$
