R37
 OpenBabel04041915303D

 80 82  0  0  1  0  0  0  0  0999 V2000
   34.1270   28.6263    9.3550 C   0  0  0  0  0  0  0  0  0  0  0  0
   34.4330   29.8589    9.9244 C   0  0  0  0  0  0  0  0  0  0  0  0
   35.7543   30.3389    9.9006 C   0  0  0  0  0  0  0  0  0  0  0  0
   36.7549   29.5790    9.2592 C   0  0  0  0  0  0  0  0  0  0  0  0
   36.4436   28.3586    8.6643 C   0  0  0  0  0  0  0  0  0  0  0  0
   35.1339   27.8894    8.7151 C   0  0  0  0  0  0  0  0  0  0  0  0
   36.1119   31.6753   10.4713 C   0  0  0  0  0  0  0  0  0  0  0  0
   32.7200   28.1245    9.4025 C   0  0  0  0  0  0  0  0  0  0  0  0
   30.5161   37.7415   14.5317 C   0  0  0  0  0  0  0  0  0  0  0  0
   30.8693   37.9121   15.8807 C   0  0  0  0  0  0  0  0  0  0  0  0
   30.1954   38.8844   16.6551 C   0  0  0  0  0  0  0  0  0  0  0  0
   29.1862   39.7028   16.1174 C   0  0  0  0  0  0  0  0  0  0  0  0
   28.8743   39.5024   14.7648 C   0  0  0  0  0  0  0  0  0  0  0  0
   28.5295   40.6695   16.8766 N   0  0  0  0  0  0  0  0  0  0  0  0
   29.5371   38.5455   13.9678 C   0  0  0  0  0  0  0  0  0  0  0  0
   33.4240   30.5034   10.6087 O   0  0  0  0  0  0  0  0  0  0  0  0
   32.6371   31.4209    9.8292 C   0  0  0  0  0  0  0  0  0  0  0  0
   31.8635   32.3873   10.7536 C   0  0  0  0  0  0  0  0  0  0  0  0
   31.3710   33.4312   10.3539 O   0  0  0  0  0  0  0  0  0  0  0  0
   31.7598   31.9950   12.0649 N   0  0  0  0  0  0  0  0  0  0  0  0
   31.4735   32.7955   14.3832 C   0  0  1  0  0  0  0  0  0  0  0  0
   31.7544   31.5061   14.9654 O   0  0  0  0  0  0  0  0  0  0  0  0
   32.8206   33.5003   14.2943 C   0  0  0  0  0  0  0  0  0  0  0  0
   32.8433   34.9583   13.9019 C   0  0  2  0  0  0  0  0  0  0  0  0
   34.0643   35.7052   14.5031 C   0  0  0  0  0  0  0  0  0  0  0  0
   35.4610   35.0852   14.3410 C   0  0  0  0  0  0  0  0  0  0  0  0
   35.7854   34.9637   12.8625 C   0  0  0  0  0  0  0  0  0  0  0  0
   36.4761   36.0252   14.9948 C   0  0  0  0  0  0  0  0  0  0  0  0
   31.6360   35.6305   14.3145 N   0  0  0  0  0  0  0  0  0  0  0  0
   31.2075   36.7665   13.6643 C   0  0  0  0  0  0  0  0  0  0  0  0
   31.3588   36.9660   12.4985 O   0  0  0  0  0  0  0  0  0  0  0  0
   30.8125   32.6015   13.0014 C   0  0  2  0  0  0  0  0  0  0  0  0
   29.5793   31.6871   13.1100 C   0  0  0  0  0  0  0  0  0  0  0  0
   28.9188   31.3619   11.7855 C   0  0  0  0  0  0  0  0  0  0  0  0
   28.1893   32.3312   11.1011 C   0  0  0  0  0  0  0  0  0  0  0  0
   27.5967   32.0284    9.8721 C   0  0  0  0  0  0  0  0  0  0  0  0
   27.7328   30.7587    9.3094 C   0  0  0  0  0  0  0  0  0  0  0  0
   28.4649   29.7825    9.9840 C   0  0  0  0  0  0  0  0  0  0  0  0
   29.0463   30.0871   11.2142 C   0  0  0  0  0  0  0  0  0  0  0  0
   37.7834   29.9377    9.2056 H   0  0  0  0  0  0  0  0  0  0  0  0
   37.2127   27.7755    8.1630 H   0  0  0  0  0  0  0  0  0  0  0  0
   34.8933   26.9391    8.2485 H   0  0  0  0  0  0  0  0  0  0  0  0
   35.2331   32.1242   10.9400 H   0  0  0  0  0  0  0  0  0  0  0  0
   36.4569   32.3423    9.6716 H   0  0  0  0  0  0  0  0  0  0  0  0
   36.8995   31.5796   11.2252 H   0  0  0  0  0  0  0  0  0  0  0  0
   32.6408   27.1650    8.8915 H   0  0  0  0  0  0  0  0  0  0  0  0
   32.0545   28.8359    8.9029 H   0  0  0  0  0  0  0  0  0  0  0  0
   32.3987   28.0054   10.4429 H   0  0  0  0  0  0  0  0  0  0  0  0
   31.6560   37.3009   16.3203 H   0  0  0  0  0  0  0  0  0  0  0  0
   30.4785   38.9940   17.6998 H   0  0  0  0  0  0  0  0  0  0  0  0
   28.0996   40.0983   14.2900 H   0  0  0  0  0  0  0  0  0  0  0  0
   28.7434   40.8276   17.8573 H   0  0  0  0  0  0  0  0  0  0  0  0
   27.8079   41.2672   16.4788 H   0  0  0  0  0  0  0  0  0  0  0  0
   29.2772   38.4208   12.9175 H   0  0  0  0  0  0  0  0  0  0  0  0
   31.8934   30.8894    9.2207 H   0  0  0  0  0  0  0  0  0  0  0  0
   33.2778   32.0280    9.1879 H   0  0  0  0  0  0  0  0  0  0  0  0
   32.3514   31.2404   12.3927 H   0  0  0  0  0  0  0  0  0  0  0  0
   30.7961   33.3332   15.0613 H   0  0  0  0  0  0  0  0  0  0  0  0
   32.1839   31.6373   15.8271 H   0  0  0  0  0  0  0  0  0  0  0  0
   33.4079   32.9611   13.5464 H   0  0  0  0  0  0  0  0  0  0  0  0
   33.3142   33.3858   15.2618 H   0  0  0  0  0  0  0  0  0  0  0  0
   32.9203   35.0280   12.8172 H   0  0  0  0  0  0  0  0  0  0  0  0
   33.8930   35.8478   15.5776 H   0  0  0  0  0  0  0  0  0  0  0  0
   34.1081   36.6957   14.0280 H   0  0  0  0  0  0  0  0  0  0  0  0
   35.5227   34.1087   14.8406 H   0  0  0  0  0  0  0  0  0  0  0  0
   36.7797   34.5328   12.7122 H   0  0  0  0  0  0  0  0  0  0  0  0
   35.7587   35.9548   12.3886 H   0  0  0  0  0  0  0  0  0  0  0  0
   35.0473   34.3264   12.3718 H   0  0  0  0  0  0  0  0  0  0  0  0
   36.2702   36.1238   16.0676 H   0  0  0  0  0  0  0  0  0  0  0  0
   36.4065   37.0191   14.5329 H   0  0  0  0  0  0  0  0  0  0  0  0
   37.4925   35.6437   14.8595 H   0  0  0  0  0  0  0  0  0  0  0  0
   31.0504   35.2750   15.0587 H   0  0  0  0  0  0  0  0  0  0  0  0
   30.5072   33.5788   12.6138 H   0  0  0  0  0  0  0  0  0  0  0  0
   28.8402   32.1704   13.7587 H   0  0  0  0  0  0  0  0  0  0  0  0
   29.8785   30.7403   13.5800 H   0  0  0  0  0  0  0  0  0  0  0  0
   28.0877   33.3284   11.5227 H   0  0  0  0  0  0  0  0  0  0  0  0
   27.0260   32.7906    9.3511 H   0  0  0  0  0  0  0  0  0  0  0  0
   27.2702   30.5355    8.3507 H   0  0  0  0  0  0  0  0  0  0  0  0
   28.5720   28.7912    9.5500 H   0  0  0  0  0  0  0  0  0  0  0  0
   29.6108   29.3234   11.7395 H   0  0  0  0  0  0  0  0  0  0  0  0
  1  8  1  0  0  0  0
  1  6  2  0  0  0  0
  1  2  1  0  0  0  0
  2 16  1  0  0  0  0
  2  3  2  0  0  0  0
  3  7  1  0  0  0  0
  3  4  1  0  0  0  0
  4  5  2  0  0  0  0
  4 40  1  0  0  0  0
  5  6  1  0  0  0  0
  5 41  1  0  0  0  0
  6 42  1  0  0  0  0
  7 43  1  0  0  0  0
  7 44  1  0  0  0  0
  7 45  1  0  0  0  0
  8 46  1  0  0  0  0
  8 47  1  0  0  0  0
  8 48  1  0  0  0  0
  9 30  1  0  0  0  0
  9 15  2  0  0  0  0
  9 10  1  0  0  0  0
 10 11  2  0  0  0  0
 10 49  1  0  0  0  0
 11 12  1  0  0  0  0
 11 50  1  0  0  0  0
 12 14  1  0  0  0  0
 12 13  2  0  0  0  0
 13 15  1  0  0  0  0
 13 51  1  0  0  0  0
 14 52  1  0  0  0  0
 14 53  1  0  0  0  0
 15 54  1  0  0  0  0
 16 17  1  0  0  0  0
 17 18  1  0  0  0  0
 17 55  1  0  0  0  0
 17 56  1  0  0  0  0
 18 20  1  0  0  0  0
 18 19  2  0  0  0  0
 20 32  1  0  0  0  0
 20 57  1  0  0  0  0
 21 32  1  0  0  0  0
 21 23  1  0  0  0  0
 21 22  1  0  0  0  0
 21 58  1  1  0  0  0
 22 59  1  0  0  0  0
 23 24  1  0  0  0  0
 23 60  1  0  0  0  0
 23 61  1  0  0  0  0
 24 29  1  0  0  0  0
 24 25  1  0  0  0  0
 24 62  1  6  0  0  0
 25 26  1  0  0  0  0
 25 63  1  0  0  0  0
 25 64  1  0  0  0  0
 26 28  1  0  0  0  0
 26 27  1  0  0  0  0
 26 65  1  0  0  0  0
 27 66  1  0  0  0  0
 27 67  1  0  0  0  0
 27 68  1  0  0  0  0
 28 69  1  0  0  0  0
 28 70  1  0  0  0  0
 28 71  1  0  0  0  0
 29 30  1  0  0  0  0
 29 72  1  0  0  0  0
 30 31  2  0  0  0  0
 32 33  1  0  0  0  0
 32 73  1  6  0  0  0
 33 34  1  0  0  0  0
 33 74  1  0  0  0  0
 33 75  1  0  0  0  0
 34 39  2  0  0  0  0
 34 35  1  0  0  0  0
 35 36  2  0  0  0  0
 35 76  1  0  0  0  0
 36 37  1  0  0  0  0
 36 77  1  0  0  0  0
 37 38  2  0  0  0  0
 37 78  1  0  0  0  0
 38 39  1  0  0  0  0
 38 79  1  0  0  0  0
 39 80  1  0  0  0  0
M  END
$$$$
