RAP
 OpenBabel04041914403D

144147  0  0  1  0  0  0  0  0999 V2000
    4.6587    8.5223   12.8175 C   0  0  0  0  0  0  0  0  0  0  0  0
    4.2360    9.4911   13.6940 O   0  0  0  0  0  0  0  0  0  0  0  0
    5.3901    8.7475   11.8766 O   0  0  0  0  0  0  0  0  0  0  0  0
    4.1624    7.0891   13.1417 C   0  0  2  0  0  0  0  0  0  0  0  0
    3.7311    6.3760   11.8530 C   0  0  0  0  0  0  0  0  0  0  0  0
    2.3555    6.8292   11.3732 C   0  0  0  0  0  0  0  0  0  0  0  0
    1.3436    6.6505   12.4954 C   0  0  0  0  0  0  0  0  0  0  0  0
    1.7781    7.4288   13.7146 C   0  0  0  0  0  0  0  0  0  0  0  0
    3.0896    6.9885   14.1184 N   0  0  0  0  0  0  0  0  0  0  0  0
    3.4370    6.5556   15.3941 C   0  0  0  0  0  0  0  0  0  0  0  0
    4.5496    6.2392   15.6833 O   0  0  0  0  0  0  0  0  0  0  0  0
    2.3700    6.3927   16.4309 C   0  0  0  0  0  0  0  0  0  0  0  0
    1.7761    5.3280   16.4623 O   0  0  0  0  0  0  0  0  0  0  0  0
    2.0825    7.5504   17.3945 C   0  0  1  0  0  0  0  0  0  0  0  0
    1.2823    8.4356   16.6095 O   0  0  0  0  0  0  0  0  0  0  0  0
    1.3059    7.0324   18.4776 O   0  0  0  0  0  0  0  0  0  0  0  0
    3.3336    8.2736   17.9271 C   0  0  1  0  0  0  0  0  0  0  0  0
    2.9416    9.5739   18.6550 C   0  0  0  0  0  0  0  0  0  0  0  0
    2.0122   10.4269   17.8029 C   0  0  0  0  0  0  0  0  0  0  0  0
    0.8421    9.6393   17.2344 C   0  0  1  0  0  0  0  0  0  0  0  0
    0.1873   10.4214   16.0889 C   0  0  0  0  0  0  0  0  0  0  0  0
   -0.5813   11.6664   16.4949 C   0  0  2  0  0  0  0  0  0  0  0  0
   -1.6430   11.2356   17.3365 O   0  0  0  0  0  0  0  0  0  0  0  0
   -1.1550   12.3565   15.2737 C   0  0  0  0  0  0  0  0  0  0  0  0
   -0.6841   13.5808   14.9560 C   0  0  0  0  0  0  0  0  0  0  0  0
   -1.1016   14.3660   13.8253 C   0  0  0  0  0  0  0  0  0  0  0  0
   -0.5963   15.5947   13.6245 C   0  0  0  0  0  0  0  0  0  0  0  0
   -0.9114   16.3676   12.4522 C   0  0  0  0  0  0  0  0  0  0  0  0
   -0.2604   17.5049   12.1694 C   0  0  0  0  0  0  0  0  0  0  0  0
   -0.4459   18.2708   10.8910 C   0  0  2  0  0  0  0  0  0  0  0  0
    0.9207   18.4138   10.2066 C   0  0  0  0  0  0  0  0  0  0  0  0
    1.6684   17.0992    9.9757 C   0  0  2  0  0  0  0  0  0  0  0  0
    3.1548   17.3669    9.7653 C   0  0  0  0  0  0  0  0  0  0  0  0
    3.5970   17.6845    8.6575 O   0  0  0  0  0  0  0  0  0  0  0  0
    4.0452   17.2908   11.0139 C   0  0  2  0  0  0  0  0  0  0  0  0
    5.2485   18.0378   10.7837 O   0  0  0  0  0  0  0  0  0  0  0  0
    4.4878   15.8469   11.3223 C   0  0  2  0  0  0  0  0  0  0  0  0
    4.8337   15.2054   10.0892 O   0  0  0  0  0  0  0  0  0  0  0  0
    3.4633   15.0240   12.0986 C   0  0  0  0  0  0  0  0  0  0  0  0
    2.8120   13.9745   11.5450 C   0  0  0  0  0  0  0  0  0  0  0  0
    1.7808   13.0555   12.1606 C   0  0  2  0  0  0  0  0  0  0  0  0
    2.4469   11.7105   12.4938 C   0  0  0  0  0  0  0  0  0  0  0  0
    2.2673   10.7033   11.8092 O   0  0  0  0  0  0  0  0  0  0  0  0
    3.3692   11.6981   13.7162 C   0  0  0  0  0  0  0  0  0  0  0  0
    4.6301   10.8790   13.4384 C   0  0  1  0  0  0  0  0  0  0  0  0
    5.8499   11.1682   14.3431 C   0  0  1  0  0  0  0  0  0  0  0  0
    6.5573   12.4877   14.0280 C   0  0  0  0  0  0  0  0  0  0  0  0
    7.1969   12.5854   12.6347 C   0  0  1  0  0  0  0  0  0  0  0  0
    7.8074   13.9727   12.4588 C   0  0  0  0  0  0  0  0  0  0  0  0
    8.3819   14.1847   11.0635 C   0  0  1  0  0  0  0  0  0  0  0  0
    9.0828   15.4396   11.0910 O   0  0  0  0  0  0  0  0  0  0  0  0
    9.3901   13.0647   10.7177 C   0  0  2  0  0  0  0  0  0  0  0  0
    9.8169   13.1825    9.3543 O   0  0  0  0  0  0  0  0  0  0  0  0
    8.8176   11.6616   10.9349 C   0  0  0  0  0  0  0  0  0  0  0  0
    8.2394   11.5054   12.3397 C   0  0  0  0  0  0  0  0  0  0  0  0
    4.2358    7.4207   18.8270 C   0  0  0  0  0  0  0  0  0  0  0  0
   -2.2408   11.6306   14.5310 C   0  0  0  0  0  0  0  0  0  0  0  0
   -1.0121   19.6585   11.1902 C   0  0  0  0  0  0  0  0  0  0  0  0
    1.1007   16.3292    8.8000 C   0  0  0  0  0  0  0  0  0  0  0  0
    3.2273   15.4727   13.5096 C   0  0  0  0  0  0  0  0  0  0  0  0
    0.6323   12.8362   11.1837 C   0  0  0  0  0  0  0  0  0  0  0  0
    5.4789   11.1311   15.8229 C   0  0  0  0  0  0  0  0  0  0  0  0
   -2.1245   12.2564   18.1942 C   0  0  0  0  0  0  0  0  0  0  0  0
    5.1272   19.4028   11.1329 C   0  0  0  0  0  0  0  0  0  0  0  0
    8.3402   16.5277   10.5491 C   0  0  0  0  0  0  0  0  0  0  0  0
    5.0532    6.5495   13.5110 H   0  0  0  0  0  0  0  0  0  0  0  0
    3.6830    5.2944   12.0450 H   0  0  0  0  0  0  0  0  0  0  0  0
    4.4613    6.5592   11.0622 H   0  0  0  0  0  0  0  0  0  0  0  0
    2.0483    6.2345   10.5075 H   0  0  0  0  0  0  0  0  0  0  0  0
    2.3961    7.8839   11.0734 H   0  0  0  0  0  0  0  0  0  0  0  0
    1.2855    5.5878   12.7589 H   0  0  0  0  0  0  0  0  0  0  0  0
    0.3629    7.0003   12.1742 H   0  0  0  0  0  0  0  0  0  0  0  0
    1.0542    7.2863   14.5145 H   0  0  0  0  0  0  0  0  0  0  0  0
    1.8428    8.4944   13.4808 H   0  0  0  0  0  0  0  0  0  0  0  0
    0.5576    6.5335   18.1008 H   0  0  0  0  0  0  0  0  0  0  0  0
    3.9361    8.5710   17.0670 H   0  0  0  0  0  0  0  0  0  0  0  0
    3.8417   10.1651   18.8852 H   0  0  0  0  0  0  0  0  0  0  0  0
    2.4402    9.3476   19.6062 H   0  0  0  0  0  0  0  0  0  0  0  0
    2.5946   10.8431   16.9721 H   0  0  0  0  0  0  0  0  0  0  0  0
    1.6181   11.2534   18.4000 H   0  0  0  0  0  0  0  0  0  0  0  0
    0.1122    9.4044   18.0186 H   0  0  0  0  0  0  0  0  0  0  0  0
   -0.4920    9.7322   15.5709 H   0  0  0  0  0  0  0  0  0  0  0  0
    0.9733   10.7059   15.3845 H   0  0  0  0  0  0  0  0  0  0  0  0
    0.0914   12.3467   17.0375 H   0  0  0  0  0  0  0  0  0  0  0  0
    0.0825   14.0072   15.6064 H   0  0  0  0  0  0  0  0  0  0  0  0
   -1.8050   13.9679   13.1045 H   0  0  0  0  0  0  0  0  0  0  0  0
    0.0815   16.0002   14.3713 H   0  0  0  0  0  0  0  0  0  0  0  0
   -1.6844   16.0249   11.7688 H   0  0  0  0  0  0  0  0  0  0  0  0
    0.4893   17.8603   12.8668 H   0  0  0  0  0  0  0  0  0  0  0  0
   -1.1452   17.7603   10.2154 H   0  0  0  0  0  0  0  0  0  0  0  0
    1.5432   19.0570   10.8396 H   0  0  0  0  0  0  0  0  0  0  0  0
    0.7725   18.9057    9.2402 H   0  0  0  0  0  0  0  0  0  0  0  0
    1.5794   16.4775   10.8643 H   0  0  0  0  0  0  0  0  0  0  0  0
    3.5029   17.7125   11.8680 H   0  0  0  0  0  0  0  0  0  0  0  0
    5.4073   15.8888   11.9291 H   0  0  0  0  0  0  0  0  0  0  0  0
    5.1205   14.3004   10.2636 H   0  0  0  0  0  0  0  0  0  0  0  0
    3.0299   13.7724   10.4970 H   0  0  0  0  0  0  0  0  0  0  0  0
    1.3777   13.4651   13.0874 H   0  0  0  0  0  0  0  0  0  0  0  0
    2.8205   11.2552   14.5488 H   0  0  0  0  0  0  0  0  0  0  0  0
    3.6198   12.7282   13.9593 H   0  0  0  0  0  0  0  0  0  0  0  0
    4.9354   11.0509   12.3952 H   0  0  0  0  0  0  0  0  0  0  0  0
    6.5622   10.3509   14.1950 H   0  0  0  0  0  0  0  0  0  0  0  0
    7.3339   12.6508   14.7848 H   0  0  0  0  0  0  0  0  0  0  0  0
    5.8176   13.2919   14.1124 H   0  0  0  0  0  0  0  0  0  0  0  0
    6.4003   12.4798   11.8974 H   0  0  0  0  0  0  0  0  0  0  0  0
    8.6081   14.1291   13.1979 H   0  0  0  0  0  0  0  0  0  0  0  0
    7.0425   14.7318   12.6484 H   0  0  0  0  0  0  0  0  0  0  0  0
    7.5795   14.2111   10.3115 H   0  0  0  0  0  0  0  0  0  0  0  0
   10.2825   13.1747   11.3468 H   0  0  0  0  0  0  0  0  0  0  0  0
    9.0333   13.1251    8.7827 H   0  0  0  0  0  0  0  0  0  0  0  0
    9.6062   10.9072   10.7835 H   0  0  0  0  0  0  0  0  0  0  0  0
    8.0320   11.4594   10.1923 H   0  0  0  0  0  0  0  0  0  0  0  0
    7.7756   10.5180   12.4183 H   0  0  0  0  0  0  0  0  0  0  0  0
    9.0605   11.5670   13.0638 H   0  0  0  0  0  0  0  0  0  0  0  0
    4.5248    6.4935   18.3193 H   0  0  0  0  0  0  0  0  0  0  0  0
    3.7381    7.1581   19.7681 H   0  0  0  0  0  0  0  0  0  0  0  0
    5.1616    7.9638   19.0757 H   0  0  0  0  0  0  0  0  0  0  0  0
   -2.6003   12.1989   13.6700 H   0  0  0  0  0  0  0  0  0  0  0  0
   -3.1016   11.4497   15.1872 H   0  0  0  0  0  0  0  0  0  0  0  0
   -1.8797   10.6659   14.1596 H   0  0  0  0  0  0  0  0  0  0  0  0
   -1.9940   19.5721   11.6682 H   0  0  0  0  0  0  0  0  0  0  0  0
   -1.1241   20.2397   10.2657 H   0  0  0  0  0  0  0  0  0  0  0  0
   -0.3424   20.2076   11.8645 H   0  0  0  0  0  0  0  0  0  0  0  0
    1.6695   15.4064    8.6448 H   0  0  0  0  0  0  0  0  0  0  0  0
    1.1546   16.9273    7.8823 H   0  0  0  0  0  0  0  0  0  0  0  0
    0.0551   16.0700    8.9873 H   0  0  0  0  0  0  0  0  0  0  0  0
    2.4761   14.8562   14.0057 H   0  0  0  0  0  0  0  0  0  0  0  0
    2.8678   16.5052   13.5243 H   0  0  0  0  0  0  0  0  0  0  0  0
    4.1527   15.4095   14.0893 H   0  0  0  0  0  0  0  0  0  0  0  0
    0.1503   13.7882   10.9429 H   0  0  0  0  0  0  0  0  0  0  0  0
   -0.1199   12.1564   11.6044 H   0  0  0  0  0  0  0  0  0  0  0  0
    1.0060   12.3927   10.2509 H   0  0  0  0  0  0  0  0  0  0  0  0
    4.9813   10.1893   16.0606 H   0  0  0  0  0  0  0  0  0  0  0  0
    4.8119   11.9621   16.0703 H   0  0  0  0  0  0  0  0  0  0  0  0
    6.3835   11.2110   16.4390 H   0  0  0  0  0  0  0  0  0  0  0  0
   -2.9325   11.8240   18.7880 H   0  0  0  0  0  0  0  0  0  0  0  0
   -2.5104   13.0971   17.6132 H   0  0  0  0  0  0  0  0  0  0  0  0
   -1.3239   12.5896   18.8597 H   0  0  0  0  0  0  0  0  0  0  0  0
    6.0840   19.8806   10.9142 H   0  0  0  0  0  0  0  0  0  0  0  0
    4.9194   19.4817   12.2032 H   0  0  0  0  0  0  0  0  0  0  0  0
    4.3347   19.8819   10.5545 H   0  0  0  0  0  0  0  0  0  0  0  0
    8.9612   17.4242   10.6348 H   0  0  0  0  0  0  0  0  0  0  0  0
    7.4179   16.6754   11.1104 H   0  0  0  0  0  0  0  0  0  0  0  0
    8.1227   16.3377    9.4958 H   0  0  0  0  0  0  0  0  0  0  0  0
  1  3  2  0  0  0  0
  1  4  1  0  0  0  0
  1  2  1  0  0  0  0
  2 45  1  0  0  0  0
  4  5  1  0  0  0  0
  4  9  1  0  0  0  0
  4 66  1  1  0  0  0
  5  6  1  0  0  0  0
  5 67  1  0  0  0  0
  5 68  1  0  0  0  0
  6  7  1  0  0  0  0
  6 69  1  0  0  0  0
  6 70  1  0  0  0  0
  7  8  1  0  0  0  0
  7 71  1  0  0  0  0
  7 72  1  0  0  0  0
  8  9  1  0  0  0  0
  8 73  1  0  0  0  0
  8 74  1  0  0  0  0
  9 10  1  0  0  0  0
 10 11  2  0  0  0  0
 10 12  1  0  0  0  0
 12 13  2  0  0  0  0
 12 14  1  0  0  0  0
 14 16  1  1  0  0  0
 14 17  1  0  0  0  0
 14 15  1  0  0  0  0
 15 20  1  0  0  0  0
 16 75  1  0  0  0  0
 17 18  1  0  0  0  0
 17 56  1  0  0  0  0
 17 76  1  6  0  0  0
 18 19  1  0  0  0  0
 18 77  1  0  0  0  0
 18 78  1  0  0  0  0
 19 20  1  0  0  0  0
 19 79  1  0  0  0  0
 19 80  1  0  0  0  0
 20 21  1  0  0  0  0
 20 81  1  1  0  0  0
 21 22  1  0  0  0  0
 21 82  1  0  0  0  0
 21 83  1  0  0  0  0
 22 23  1  0  0  0  0
 22 24  1  0  0  0  0
 22 84  1  1  0  0  0
 23 63  1  0  0  0  0
 24 57  1  0  0  0  0
 24 25  2  0  0  0  0
 25 26  1  0  0  0  0
 25 85  1  0  0  0  0
 26 27  2  0  0  0  0
 26 86  1  0  0  0  0
 27 28  1  0  0  0  0
 27 87  1  0  0  0  0
 28 29  2  0  0  0  0
 28 88  1  0  0  0  0
 29 30  1  0  0  0  0
 29 89  1  0  0  0  0
 30 31  1  0  0  0  0
 30 58  1  0  0  0  0
 30 90  1  6  0  0  0
 31 32  1  0  0  0  0
 31 91  1  0  0  0  0
 31 92  1  0  0  0  0
 32 33  1  0  0  0  0
 32 59  1  0  0  0  0
 32 93  1  1  0  0  0
 33 34  2  0  0  0  0
 33 35  1  0  0  0  0
 35 36  1  0  0  0  0
 35 37  1  0  0  0  0
 35 94  1  1  0  0  0
 36 64  1  0  0  0  0
 37 38  1  0  0  0  0
 37 39  1  0  0  0  0
 37 95  1  1  0  0  0
 38 96  1  0  0  0  0
 39 60  1  0  0  0  0
 39 40  2  0  0  0  0
 40 41  1  0  0  0  0
 40 97  1  0  0  0  0
 41 42  1  0  0  0  0
 41 61  1  0  0  0  0
 41 98  1  1  0  0  0
 42 43  2  0  0  0  0
 42 44  1  0  0  0  0
 44 45  1  0  0  0  0
 44 99  1  0  0  0  0
 44100  1  0  0  0  0
 45 46  1  0  0  0  0
 45101  1  6  0  0  0
 46 47  1  0  0  0  0
 46 62  1  0  0  0  0
 46102  1  6  0  0  0
 47 48  1  0  0  0  0
 47103  1  0  0  0  0
 47104  1  0  0  0  0
 48 49  1  0  0  0  0
 48 55  1  0  0  0  0
 48105  1  6  0  0  0
 49 50  1  0  0  0  0
 49106  1  0  0  0  0
 49107  1  0  0  0  0
 50 51  1  0  0  0  0
 50 52  1  0  0  0  0
 50108  1  6  0  0  0
 51 65  1  0  0  0  0
 52 53  1  0  0  0  0
 52 54  1  0  0  0  0
 52109  1  1  0  0  0
 53110  1  0  0  0  0
 54 55  1  0  0  0  0
 54111  1  0  0  0  0
 54112  1  0  0  0  0
 55113  1  0  0  0  0
 55114  1  0  0  0  0
 56115  1  0  0  0  0
 56116  1  0  0  0  0
 56117  1  0  0  0  0
 57118  1  0  0  0  0
 57119  1  0  0  0  0
 57120  1  0  0  0  0
 58121  1  0  0  0  0
 58122  1  0  0  0  0
 58123  1  0  0  0  0
 59124  1  0  0  0  0
 59125  1  0  0  0  0
 59126  1  0  0  0  0
 60127  1  0  0  0  0
 60128  1  0  0  0  0
 60129  1  0  0  0  0
 61130  1  0  0  0  0
 61131  1  0  0  0  0
 61132  1  0  0  0  0
 62133  1  0  0  0  0
 62134  1  0  0  0  0
 62135  1  0  0  0  0
 63136  1  0  0  0  0
 63137  1  0  0  0  0
 63138  1  0  0  0  0
 64139  1  0  0  0  0
 64140  1  0  0  0  0
 64141  1  0  0  0  0
 65142  1  0  0  0  0
 65143  1  0  0  0  0
 65144  1  0  0  0  0
M  END
$$$$
