RC1
 OpenBabel04041917373D

 35 35  0  0  1  0  0  0  0  0999 V2000
   55.7634   11.8876   27.8886 C   0  0  0  0  0  0  0  0  0  0  0  0
   54.6794   11.1285   28.1847 C   0  0  0  0  0  0  0  0  0  0  0  0
   54.6985    9.8437   29.0150 C   0  0  2  0  0  0  0  0  0  0  0  0
   56.0253    9.8004   29.8428 C   0  0  2  0  0  0  0  0  0  0  0  0
   57.2478   10.0069   28.9098 C   0  0  1  0  0  0  0  0  0  0  0  0
   57.1552   11.4603   28.3298 C   0  0  0  0  0  0  0  0  0  0  0  0
   55.6496   13.1850   27.0293 C   0  0  0  0  0  0  0  0  0  0  0  0
   54.5899    8.7337   28.1361 O   0  0  0  0  0  0  0  0  0  0  0  0
   56.1055    8.6294   30.6860 O   0  0  0  0  0  0  0  0  0  0  0  0
   58.4530    9.8572   29.6809 O   0  0  0  0  0  0  0  0  0  0  0  0
   54.7064   13.2544   26.1814 O   0  0  0  0  0  0  0  0  0  0  0  0
   56.4635   14.1227   27.3107 O   0  0  0  0  0  0  0  0  0  0  0  0
   53.2203    7.8332   28.0036 P   0  0  0  0  0  0  0  0  0  0  0  0
   52.1473    8.7805   27.4520 O   0  0  0  0  0  0  0  0  0  0  0  0
   52.8568    7.3295   29.4051 O   0  0  0  0  0  0  0  0  0  0  0  0
   53.5704    6.7163   27.0377 O   0  0  0  0  0  0  0  0  0  0  0  0
   59.3988    8.8196   29.2310 C   0  0  1  0  0  0  0  0  0  0  0  0
   58.7719    7.4028   29.1655 C   0  0  0  0  0  0  0  0  0  0  0  0
   60.2626    9.1990   27.9529 C   0  0  0  0  0  0  0  0  0  0  0  0
   60.1405   10.3789   27.4572 O   0  0  0  0  0  0  0  0  0  0  0  0
   60.8390    8.2456   27.3204 O   0  0  0  0  0  0  0  0  0  0  0  0
   60.7016    8.7129   30.8541 P   0  0  0  0  0  0  0  0  0  0  0  0
   59.7945    8.2622   32.0147 O   0  0  0  0  0  0  0  0  0  0  0  0
   61.2808   10.1169   31.0668 O   0  0  0  0  0  0  0  0  0  0  0  0
   61.7543    7.6515   30.5114 O   0  0  0  0  0  0  0  0  0  0  0  0
   53.6983   11.4040   27.8014 H   0  0  0  0  0  0  0  0  0  0  0  0
   53.8600    9.8538   29.7309 H   0  0  0  0  0  0  0  0  0  0  0  0
   56.0369   10.6246   30.5845 H   0  0  0  0  0  0  0  0  0  0  0  0
   57.2223    9.2898   28.0831 H   0  0  0  0  0  0  0  0  0  0  0  0
   57.5204   12.1742   29.0849 H   0  0  0  0  0  0  0  0  0  0  0  0
   57.8513   11.5493   27.4848 H   0  0  0  0  0  0  0  0  0  0  0  0
   57.0346    8.5832   30.9762 H   0  0  0  0  0  0  0  0  0  0  0  0
   58.0120    7.3162   28.3804 H   0  0  0  0  0  0  0  0  0  0  0  0
   58.2825    7.1149   30.1032 H   0  0  0  0  0  0  0  0  0  0  0  0
   59.5314    6.6421   28.9627 H   0  0  0  0  0  0  0  0  0  0  0  0
  1  2  2  0  0  0  0
  1  6  1  0  0  0  0
  1  7  1  0  0  0  0
  2  3  1  0  0  0  0
  2 26  1  0  0  0  0
  3  4  1  0  0  0  0
  3  8  1  0  0  0  0
  3 27  1  1  0  0  0
  4  5  1  0  0  0  0
  4  9  1  0  0  0  0
  4 28  1  1  0  0  0
  5  6  1  0  0  0  0
  5 10  1  0  0  0  0
  5 29  1  6  0  0  0
  6 30  1  0  0  0  0
  6 31  1  0  0  0  0
  7 11  2  0  0  0  0
  7 12  1  0  0  0  0
  8 13  1  0  0  0  0
  9 32  1  0  0  0  0
 13 14  2  0  0  0  0
 13 15  1  0  0  0  0
 13 16  1  0  0  0  0
 17 10  1  1  0  0  0
 17 18  1  0  0  0  0
 17 19  1  0  0  0  0
 17 22  1  0  0  0  0
 18 33  1  0  0  0  0
 18 34  1  0  0  0  0
 18 35  1  0  0  0  0
 19 20  2  0  0  0  0
 19 21  1  0  0  0  0
 22 23  2  0  0  0  0
 22 24  1  0  0  0  0
 22 25  1  0  0  0  0
M  END
$$$$
