RDC
 OpenBabel04041914013D

 41 43  0  0  1  0  0  0  0  0999 V2000
   18.4903   -2.3907   -5.8773 C   0  0  0  0  0  0  0  0  0  0  0  0
   18.5116   -3.2645   -4.6058 C   0  0  0  0  0  0  0  0  0  0  0  0
   19.5056   -4.3262   -4.6197 C   0  0  0  0  0  0  0  0  0  0  0  0
   19.5769   -5.1443   -3.4672 C   0  0  0  0  0  0  0  0  0  0  0  0
   18.7618   -4.9462   -2.3668 C   0  0  0  0  0  0  0  0  0  0  0  0
   17.8197   -3.8990   -2.3652 C   0  0  0  0  0  0  0  0  0  0  0  0
   17.6355   -3.0405   -3.4853 C   0  0  0  0  0  0  0  0  0  0  0  0
   16.6065   -1.9030   -3.4183 C   0  0  0  0  0  0  0  0  0  0  0  0
   15.1176   -2.2509   -3.3453 C   0  0  0  0  0  0  0  0  0  0  0  0
   14.5654   -3.4435   -4.0618 C   0  0  0  0  0  0  0  0  0  0  0  0
   14.6569   -3.6072   -5.3895 C   0  0  0  0  0  0  0  0  0  0  0  0
   14.1367   -4.7636   -6.0862 C   0  0  0  0  0  0  0  0  0  0  0  0
   14.1771   -4.9817   -7.4243 C   0  0  0  0  0  0  0  0  0  0  0  0
   14.8295   -4.2802   -8.5379 C   0  0  2  0  0  0  0  0  0  0  0  0
   15.0277   -2.7898   -8.5306 C   0  0  1  0  0  0  0  0  0  0  0  0
   16.4586   -2.3408   -8.7300 C   0  0  0  0  0  0  0  0  0  0  0  0
   17.0513   -1.4491   -7.5923 C   0  0  1  0  0  0  0  0  0  0  0  0
   16.2060   -0.2366   -7.2195 C   0  0  0  0  0  0  0  0  0  0  0  0
   17.2121   -2.2413   -6.3746 O   0  0  0  0  0  0  0  0  0  0  0  0
   19.4622   -1.9025   -6.3971 O   0  0  0  0  0  0  0  0  0  0  0  0
   20.2832   -4.5878   -5.5900 O   0  0  0  0  0  0  0  0  0  0  0  0
   18.8796   -5.7587   -1.2584 O   0  0  0  0  0  0  0  0  0  0  0  0
   14.2948   -1.5437   -2.7104 O   0  0  0  0  0  0  0  0  0  0  0  0
   14.2395   -3.4298   -9.5486 O   0  0  0  0  0  0  0  0  0  0  0  0
   16.8452   -3.7374   -0.9267 Cl  0  0  0  0  0  0  0  0  0  0  0  0
   20.3220   -5.9532   -3.4674 H   0  0  0  0  0  0  0  0  0  0  0  0
   16.7366   -1.2420   -4.2749 H   0  0  0  0  0  0  0  0  0  0  0  0
   16.8099   -1.2929   -2.5241 H   0  0  0  0  0  0  0  0  0  0  0  0
   14.0598   -4.1754   -3.4518 H   0  0  0  0  0  0  0  0  0  0  0  0
   15.1240   -2.8452   -5.9713 H   0  0  0  0  0  0  0  0  0  0  0  0
   13.6569   -5.5304   -5.4775 H   0  0  0  0  0  0  0  0  0  0  0  0
   13.7611   -5.9462   -7.7098 H   0  0  0  0  0  0  0  0  0  0  0  0
   15.6306   -4.8787   -8.9492 H   0  0  0  0  0  0  0  0  0  0  0  0
   14.4801   -2.1467   -7.8783 H   0  0  0  0  0  0  0  0  0  0  0  0
   16.5594   -1.7854   -9.6685 H   0  0  0  0  0  0  0  0  0  0  0  0
   17.1122   -3.2219   -8.7588 H   0  0  0  0  0  0  0  0  0  0  0  0
   18.0071   -1.0640   -7.9720 H   0  0  0  0  0  0  0  0  0  0  0  0
   16.7129    0.3243   -6.4245 H   0  0  0  0  0  0  0  0  0  0  0  0
   15.2353   -0.5441   -6.8208 H   0  0  0  0  0  0  0  0  0  0  0  0
   16.0492    0.4269   -8.0737 H   0  0  0  0  0  0  0  0  0  0  0  0
   18.6971   -6.6722   -1.5374 H   0  0  0  0  0  0  0  0  0  0  0  0
  1 20  2  0  0  0  0
  1 19  1  0  0  0  0
  1  2  1  0  0  0  0
  2  7  2  0  0  0  0
  2  3  1  0  0  0  0
  3 21  1  0  0  0  0
  3  4  2  0  0  0  0
  4  5  1  0  0  0  0
  4 26  1  0  0  0  0
  5 22  1  0  0  0  0
  5  6  2  0  0  0  0
  6  7  1  0  0  0  0
  6 25  1  0  0  0  0
  7  8  1  0  0  0  0
  8  9  1  0  0  0  0
  8 27  1  0  0  0  0
  8 28  1  0  0  0  0
  9 23  2  0  0  0  0
  9 10  1  0  0  0  0
 10 11  2  0  0  0  0
 10 29  1  0  0  0  0
 11 12  1  0  0  0  0
 11 30  1  0  0  0  0
 12 13  2  0  0  0  0
 12 31  1  0  0  0  0
 13 14  1  0  0  0  0
 13 32  1  0  0  0  0
 14 24  1  0  0  0  0
 14 15  1  0  0  0  0
 14 33  1  6  0  0  0
 15 24  1  0  0  0  0
 15 16  1  0  0  0  0
 15 34  1  1  0  0  0
 16 17  1  0  0  0  0
 16 35  1  0  0  0  0
 16 36  1  0  0  0  0
 17 19  1  0  0  0  0
 17 18  1  0  0  0  0
 17 37  1  6  0  0  0
 18 38  1  0  0  0  0
 18 39  1  0  0  0  0
 18 40  1  0  0  0  0
 22 41  1  0  0  0  0
M  END
$$$$
