RDF
 OpenBabel04041916593D

 69 71  0  0  1  0  0  0  0  0999 V2000
   51.1940   16.9732   -8.2936 C   0  0  1  0  0  0  0  0  0  0  0  0
   50.9895   18.2894   -7.8310 O   0  0  0  0  0  0  0  0  0  0  0  0
   50.1820   16.0805   -7.5283 C   0  0  2  0  0  0  0  0  0  0  0  0
   50.1044   14.7355   -8.0403 O   0  0  0  0  0  0  0  0  0  0  0  0
   48.8135   16.7029   -7.7817 C   0  0  2  0  0  0  0  0  0  0  0  0
   47.8228   16.0361   -6.9857 O   0  0  0  0  0  0  0  0  0  0  0  0
   48.5667   16.5122   -9.2945 C   0  0  1  0  0  0  0  0  0  0  0  0
   47.2074   16.7684   -9.6285 O   0  0  0  0  0  0  0  0  0  0  0  0
   49.5871   17.3899  -10.0399 C   0  0  1  0  0  0  0  0  0  0  0  0
   50.9323   16.9595   -9.7263 O   0  0  0  0  0  0  0  0  0  0  0  0
   49.3732   17.3793  -11.5570 C   0  0  0  0  0  0  0  0  0  0  0  0
   51.8424   19.0154   -6.6724 P   0  0  1  0  0  0  0  0  0  0  0  0
   53.2674   18.9942   -7.0417 O   0  0  0  0  0  0  0  0  0  0  0  0
   51.1075   20.2752   -6.3074 O   0  0  0  0  0  0  0  0  0  0  0  0
   51.6519   18.0029   -5.3221 N   0  0  0  0  0  0  0  0  0  0  0  0
   52.7297   18.0089   -4.3344 C   0  0  2  0  0  0  0  0  0  0  0  0
   53.5621   16.7340   -4.4302 C   0  0  0  0  0  0  0  0  0  0  0  0
   54.7388   16.7165   -4.0354 O   0  0  0  0  0  0  0  0  0  0  0  0
   52.1645   18.2205   -2.9205 C   0  0  0  0  0  0  0  0  0  0  0  0
   53.2347   18.0726   -1.8112 C   0  0  0  0  0  0  0  0  0  0  0  0
   54.3706   19.0982   -1.8503 C   0  0  0  0  0  0  0  0  0  0  0  0
   52.6116   18.1166   -0.4364 C   0  0  0  0  0  0  0  0  0  0  0  0
   52.9209   15.5965   -4.8422 N   0  0  0  0  0  0  0  0  0  0  0  0
   53.5569   14.2614   -4.9751 C   0  0  2  0  0  0  0  0  0  0  0  0
   52.6551   13.2200   -5.7195 C   0  0  0  0  0  0  0  0  0  0  0  0
   51.4473   13.5928   -5.9033 O   0  0  0  0  0  0  0  0  0  0  0  0
   54.0365   13.7568   -3.6102 C   0  0  0  0  0  0  0  0  0  0  0  0
   52.9369   13.3650   -2.6813 C   0  0  1  0  0  0  0  0  0  0  0  0
   52.1717   14.2292   -1.9309 C   0  0  0  0  0  0  0  0  0  0  0  0
   52.4676   12.0492   -2.4168 C   0  0  1  0  0  0  0  0  0  0  0  0
   51.2398   13.5024   -1.2550 N   0  3  0  0  0  0  0  0  0  0  0  0
   51.4035   12.1650   -1.5218 C   0  0  1  0  0  0  0  0  0  0  0  0
   52.8441   10.7741   -2.8745 C   0  0  0  0  0  0  0  0  0  0  0  0
   50.6886   11.0656   -1.0495 C   0  0  0  0  0  0  0  0  0  0  0  0
   52.1344    9.6667   -2.4182 C   0  0  0  0  0  0  0  0  0  0  0  0
   51.0816    9.8097   -1.5163 C   0  0  0  0  0  0  0  0  0  0  0  0
   53.2194   12.1500   -6.1028 O   0  0  0  0  0  0  0  0  0  0  0  0
   52.2221   16.6062   -8.1096 H   0  0  0  0  0  0  0  0  0  0  0  0
   50.3851   16.0251   -6.4608 H   0  0  0  0  0  0  0  0  0  0  0  0
   49.5649   14.2079   -7.4245 H   0  0  0  0  0  0  0  0  0  0  0  0
   48.7607   17.7659   -7.5108 H   0  0  0  0  0  0  0  0  0  0  0  0
   47.9747   15.0897   -7.1244 H   0  0  0  0  0  0  0  0  0  0  0  0
   48.7407   15.4671   -9.5769 H   0  0  0  0  0  0  0  0  0  0  0  0
   46.7121   16.1566   -9.0520 H   0  0  0  0  0  0  0  0  0  0  0  0
   49.4518   18.4360   -9.7379 H   0  0  0  0  0  0  0  0  0  0  0  0
   50.1067   18.0245  -12.0532 H   0  0  0  0  0  0  0  0  0  0  0  0
   48.3776   17.7557  -11.8200 H   0  0  0  0  0  0  0  0  0  0  0  0
   49.4860   16.3787  -11.9852 H   0  0  0  0  0  0  0  0  0  0  0  0
   50.7599   17.5339   -5.1160 H   0  0  0  0  0  0  0  0  0  0  0  0
   53.3950   18.8425   -4.5499 H   0  0  0  0  0  0  0  0  0  0  0  0
   51.3599   17.4908   -2.7572 H   0  0  0  0  0  0  0  0  0  0  0  0
   51.6967   19.2143   -2.8867 H   0  0  0  0  0  0  0  0  0  0  0  0
   53.6877   17.0796   -1.9150 H   0  0  0  0  0  0  0  0  0  0  0  0
   55.0615   18.8966   -1.0228 H   0  0  0  0  0  0  0  0  0  0  0  0
   53.9898   20.1157   -1.7223 H   0  0  0  0  0  0  0  0  0  0  0  0
   54.9551   19.0562   -2.7723 H   0  0  0  0  0  0  0  0  0  0  0  0
   51.7853   17.4084   -0.3550 H   0  0  0  0  0  0  0  0  0  0  0  0
   52.2477   19.1240   -0.2075 H   0  0  0  0  0  0  0  0  0  0  0  0
   53.3646   17.8452    0.3103 H   0  0  0  0  0  0  0  0  0  0  0  0
   51.9488   15.6156   -5.1279 H   0  0  0  0  0  0  0  0  0  0  0  0
   54.4494   14.4111   -5.5959 H   0  0  0  0  0  0  0  0  0  0  0  0
   54.6055   14.5426   -3.1039 H   0  0  0  0  0  0  0  0  0  0  0  0
   54.7379   12.9207   -3.7254 H   0  0  0  0  0  0  0  0  0  0  0  0
   52.2057   15.3063   -1.8725 H   0  0  0  0  0  0  0  0  0  0  0  0
   50.5251   13.8872   -0.6616 H   0  0  0  0  0  0  0  0  0  0  0  0
   53.6588   10.6648   -3.5898 H   0  0  0  0  0  0  0  0  0  0  0  0
   49.8562   11.1824   -0.3652 H   0  0  0  0  0  0  0  0  0  0  0  0
   52.4014    8.6826   -2.7987 H   0  0  0  0  0  0  0  0  0  0  0  0
   50.5512    8.9285   -1.1742 H   0  0  0  0  0  0  0  0  0  0  0  0
  1  2  1  0  0  0  0
  1  3  1  0  0  0  0
  1 10  1  0  0  0  0
  1 38  1  1  0  0  0
  3  4  1  0  0  0  0
  3  5  1  0  0  0  0
  3 39  1  1  0  0  0
  4 40  1  0  0  0  0
  5  6  1  0  0  0  0
  5  7  1  0  0  0  0
  5 41  1  1  0  0  0
  6 42  1  0  0  0  0
  7  8  1  0  0  0  0
  7  9  1  0  0  0  0
  7 43  1  6  0  0  0
  8 44  1  0  0  0  0
  9 10  1  0  0  0  0
  9 11  1  0  0  0  0
  9 45  1  1  0  0  0
 11 46  1  0  0  0  0
 11 47  1  0  0  0  0
 11 48  1  0  0  0  0
 12  2  1  6  0  0  0
 12 13  2  0  0  0  0
 12 14  1  0  0  0  0
 12 15  1  0  0  0  0
 15 16  1  0  0  0  0
 15 49  1  0  0  0  0
 16 19  1  0  0  0  0
 16 17  1  0  0  0  0
 16 50  1  6  0  0  0
 17 18  2  0  0  0  0
 17 23  1  0  0  0  0
 19 20  1  0  0  0  0
 19 51  1  0  0  0  0
 19 52  1  0  0  0  0
 20 21  1  0  0  0  0
 20 22  1  0  0  0  0
 20 53  1  0  0  0  0
 21 54  1  0  0  0  0
 21 55  1  0  0  0  0
 21 56  1  0  0  0  0
 22 57  1  0  0  0  0
 22 58  1  0  0  0  0
 22 59  1  0  0  0  0
 23 24  1  0  0  0  0
 23 60  1  0  0  0  0
 24 27  1  0  0  0  0
 24 25  1  0  0  0  0
 24 61  1  6  0  0  0
 25 26  2  0  0  0  0
 25 37  1  0  0  0  0
 27 62  1  0  0  0  0
 27 63  1  0  0  0  0
 28 27  1  6  0  0  0
 28 29  1  0  0  0  0
 28 30  1  0  0  0  0
 29 31  1  0  0  0  0
 29 64  1  0  0  0  0
 30 33  1  6  0  0  0
 30 32  1  0  0  0  0
 31 32  1  0  0  0  0
 31 65  1  0  0  0  0
 32 34  1  6  0  0  0
 33 35  1  0  0  0  0
 33 66  1  0  0  0  0
 34 36  1  0  0  0  0
 34 67  1  0  0  0  0
 35 36  1  0  0  0  0
 35 68  1  0  0  0  0
 36 69  1  0  0  0  0
M  CHG  1  31   1
M  END
$$$$
