RIP
 OpenBabel04041914193D

 20 20  0  0  1  0  0  0  0  0999 V2000
   49.7266   33.6410   43.6204 C   0  0  2  0  0  0  0  0  0  0  0  0
   49.0408   33.0982   44.8933 C   0  0  1  0  0  0  0  0  0  0  0  0
   48.7095   34.2612   45.8299 C   0  0  1  0  0  0  0  0  0  0  0  0
   49.9561   35.1409   46.0495 C   0  0  1  0  0  0  0  0  0  0  0  0
   50.5674   35.5473   44.7327 C   0  0  0  0  0  0  0  0  0  0  0  0
   50.1243   32.5693   42.7729 O   0  0  0  0  0  0  0  0  0  0  0  0
   47.8457   32.3585   44.6137 O   0  0  0  0  0  0  0  0  0  0  0  0
   47.6511   35.0476   45.2657 O   0  0  0  0  0  0  0  0  0  0  0  0
   49.6059   36.3103   46.7803 O   0  0  0  0  0  0  0  0  0  0  0  0
   50.8932   34.4006   43.9424 O   0  0  0  0  0  0  0  0  0  0  0  0
   49.0275   34.2573   43.0459 H   0  0  0  0  0  0  0  0  0  0  0  0
   49.7231   32.4102   45.4078 H   0  0  0  0  0  0  0  0  0  0  0  0
   48.3383   33.8761   46.7867 H   0  0  0  0  0  0  0  0  0  0  0  0
   50.6845   34.5547   46.6336 H   0  0  0  0  0  0  0  0  0  0  0  0
   51.4858   36.1131   44.9290 H   0  0  0  0  0  0  0  0  0  0  0  0
   49.8991   36.2197   44.1821 H   0  0  0  0  0  0  0  0  0  0  0  0
   50.7894   32.0592   43.2619 H   0  0  0  0  0  0  0  0  0  0  0  0
   48.0730   31.6502   43.9886 H   0  0  0  0  0  0  0  0  0  0  0  0
   47.4749   35.7897   45.8726 H   0  0  0  0  0  0  0  0  0  0  0  0
   49.2488   36.0300   47.6499 H   0  0  0  0  0  0  0  0  0  0  0  0
  1 10  1  0  0  0  0
  1  6  1  0  0  0  0
  1  2  1  0  0  0  0
  1 11  1  6  0  0  0
  2  7  1  0  0  0  0
  2  3  1  0  0  0  0
  2 12  1  1  0  0  0
  3  8  1  0  0  0  0
  3  4  1  0  0  0  0
  3 13  1  1  0  0  0
  4  9  1  0  0  0  0
  4  5  1  0  0  0  0
  4 14  1  1  0  0  0
  5 10  1  0  0  0  0
  5 15  1  0  0  0  0
  5 16  1  0  0  0  0
  6 17  1  0  0  0  0
  7 18  1  0  0  0  0
  8 19  1  0  0  0  0
  9 20  1  0  0  0  0
M  END
$$$$
