RIP
 OpenBabel04041914193D

 20 20  0  0  1  0  0  0  0  0999 V2000
   50.1245   34.0292   43.2833 C   0  0  2  0  0  0  0  0  0  0  0  0
   49.4142   33.4546   44.5217 C   0  0  1  0  0  0  0  0  0  0  0  0
   49.0228   34.5974   45.4414 C   0  0  1  0  0  0  0  0  0  0  0  0
   50.2361   35.4726   45.7629 C   0  0  1  0  0  0  0  0  0  0  0  0
   50.9242   35.9100   44.4779 C   0  0  0  0  0  0  0  0  0  0  0  0
   50.5392   32.9676   42.4221 O   0  0  0  0  0  0  0  0  0  0  0  0
   48.2281   32.7436   44.1669 O   0  0  0  0  0  0  0  0  0  0  0  0
   48.0111   35.3617   44.7707 O   0  0  0  0  0  0  0  0  0  0  0  0
   49.8394   36.6323   46.4856 O   0  0  0  0  0  0  0  0  0  0  0  0
   51.2701   34.7883   43.6604 O   0  0  0  0  0  0  0  0  0  0  0  0
   49.4276   34.6520   42.7092 H   0  0  0  0  0  0  0  0  0  0  0  0
   50.0848   32.7759   45.0516 H   0  0  0  0  0  0  0  0  0  0  0  0
   48.5882   34.1973   46.3638 H   0  0  0  0  0  0  0  0  0  0  0  0
   50.9347   34.8870   46.3702 H   0  0  0  0  0  0  0  0  0  0  0  0
   51.8449   36.4489   44.7374 H   0  0  0  0  0  0  0  0  0  0  0  0
   50.2794   36.6015   43.9211 H   0  0  0  0  0  0  0  0  0  0  0  0
   51.1759   32.4270   42.9148 H   0  0  0  0  0  0  0  0  0  0  0  0
   48.4950   32.0450   43.5453 H   0  0  0  0  0  0  0  0  0  0  0  0
   47.7819   36.1138   45.3659 H   0  0  0  0  0  0  0  0  0  0  0  0
   49.4305   36.3418   47.3072 H   0  0  0  0  0  0  0  0  0  0  0  0
  1 10  1  0  0  0  0
  1  6  1  0  0  0  0
  1  2  1  0  0  0  0
  1 11  1  6  0  0  0
  2  7  1  0  0  0  0
  2  3  1  0  0  0  0
  2 12  1  1  0  0  0
  3  8  1  0  0  0  0
  3  4  1  0  0  0  0
  3 13  1  1  0  0  0
  4  9  1  0  0  0  0
  4  5  1  0  0  0  0
  4 14  1  1  0  0  0
  5 10  1  0  0  0  0
  5 15  1  0  0  0  0
  5 16  1  0  0  0  0
  6 17  1  0  0  0  0
  7 18  1  0  0  0  0
  8 19  1  0  0  0  0
  9 20  1  0  0  0  0
M  END
$$$$
