RIS
 OpenBabel04041917513D

 24 24  0  0  0  0  0  0  0  0999 V2000
   16.9497   36.0000   -6.7520 O   0  0  0  0  0  0  0  0  0  0  0  0
   15.5374   35.9919   -7.3121 P   0  0  0  0  0  0  0  0  0  0  0  0
   15.0809   37.1731   -8.1683 O   0  0  0  0  0  0  0  0  0  0  0  0
   14.5206   35.7519   -6.1651 O   0  0  0  0  0  0  0  0  0  0  0  0
   15.2821   34.2429   -8.5360 C   0  0  0  0  0  0  0  0  0  0  0  0
   14.0056   34.5259   -9.1494 O   0  0  0  0  0  0  0  0  0  0  0  0
   16.6233   33.9940  -10.0697 P   0  0  0  0  0  0  0  0  0  0  0  0
   16.7348   35.3305  -10.8035 O   0  0  0  0  0  0  0  0  0  0  0  0
   17.9185   33.4527   -9.4466 O   0  0  0  0  0  0  0  0  0  0  0  0
   15.9705   32.9405  -10.9944 O   0  0  0  0  0  0  0  0  0  0  0  0
   15.2158   33.0772   -7.5356 C   0  0  0  0  0  0  0  0  0  0  0  0
   15.0240   31.6619   -8.0376 C   0  0  0  0  0  0  0  0  0  0  0  0
   15.6122   30.6054   -7.3368 C   0  0  0  0  0  0  0  0  0  0  0  0
   15.5012   29.3051   -7.8088 C   0  0  0  0  0  0  0  0  0  0  0  0
   14.7329   29.0894   -8.9480 C   0  0  0  0  0  0  0  0  0  0  0  0
   14.0466   30.0461   -9.5931 N   0  0  0  0  0  0  0  0  0  0  0  0
   14.2596   31.3313   -9.1628 C   0  0  0  0  0  0  0  0  0  0  0  0
   14.2233   35.4187   -9.4890 H   0  0  0  0  0  0  0  0  0  0  0  0
   14.3742   33.2504   -6.8521 H   0  0  0  0  0  0  0  0  0  0  0  0
   16.1349   33.1088   -6.9293 H   0  0  0  0  0  0  0  0  0  0  0  0
   16.2227   30.8232   -6.4619 H   0  0  0  0  0  0  0  0  0  0  0  0
   16.0336   28.4999   -7.3354 H   0  0  0  0  0  0  0  0  0  0  0  0
   14.6558   28.1120   -9.3850 H   0  0  0  0  0  0  0  0  0  0  0  0
   13.8231   32.1138   -9.7715 H   0  0  0  0  0  0  0  0  0  0  0  0
  1  2  2  0  0  0  0
  2  3  1  0  0  0  0
  2  4  1  0  0  0  0
  2  5  1  0  0  0  0
  5  6  1  0  0  0  0
  5  7  1  0  0  0  0
  5 11  1  0  0  0  0
  6 18  1  0  0  0  0
  7  8  2  0  0  0  0
  7  9  1  0  0  0  0
  7 10  1  0  0  0  0
 11 12  1  0  0  0  0
 11 19  1  0  0  0  0
 11 20  1  0  0  0  0
 12 13  2  0  0  0  0
 12 17  1  0  0  0  0
 13 14  1  0  0  0  0
 13 21  1  0  0  0  0
 14 15  2  0  0  0  0
 14 22  1  0  0  0  0
 15 16  1  0  0  0  0
 15 23  1  0  0  0  0
 16 17  2  0  0  0  0
 17 24  1  0  0  0  0
M  END
$$$$
