RIT
 OpenBabel04041916503D

 98101  0  0  1  0  0  0  0  0999 V2000
   18.2307    1.2024    4.2101 C   0  0  0  0  0  0  0  0  0  0  0  0
   17.9126    0.0061    4.8437 C   0  0  0  0  0  0  0  0  0  0  0  0
   18.4069   -1.3475    3.9340 S   0  0  0  0  0  0  0  0  0  0  0  0
   18.9891   -0.2482    2.7948 C   0  0  0  0  0  0  0  0  0  0  0  0
   18.8591    1.0308    3.0127 N   0  0  0  0  0  0  0  0  0  0  0  0
   17.2596   -0.3170    6.1174 C   0  0  0  0  0  0  0  0  0  0  0  0
   18.3443   -0.4650    7.0488 O   0  0  0  0  0  0  0  0  0  0  0  0
   18.0636   -0.8677    8.3252 C   0  0  0  0  0  0  0  0  0  0  0  0
   19.2723   -0.9156    9.0040 N   0  0  0  0  0  0  0  0  0  0  0  0
   19.3677   -1.2788   10.4259 C   0  0  2  0  0  0  0  0  0  0  0  0
   20.4377   -0.4386   11.1772 C   0  0  2  0  0  0  0  0  0  0  0  0
   20.3252    1.0613   10.9856 C   0  0  0  0  0  0  0  0  0  0  0  0
   19.2043    1.8569   11.6604 C   0  0  2  0  0  0  0  0  0  0  0  0
   18.1911    1.3048   13.9049 C   0  0  0  0  0  0  0  0  0  0  0  0
   18.5313    1.3774   15.4388 C   0  0  1  0  0  0  0  0  0  0  0  0
   17.9536    2.6134   15.9872 N   0  0  0  0  0  0  0  0  0  0  0  0
   18.7222    3.6865   16.3795 C   0  0  0  0  0  0  0  0  0  0  0  0
   16.9746   -1.0774    8.7747 O   0  0  0  0  0  0  0  0  0  0  0  0
   19.7028   -2.7760   10.6489 C   0  0  0  0  0  0  0  0  0  0  0  0
   18.7705   -3.7913   10.0645 C   0  0  0  0  0  0  0  0  0  0  0  0
   17.6453   -4.0430   10.8538 C   0  0  0  0  0  0  0  0  0  0  0  0
   16.7030   -4.9713   10.4332 C   0  0  0  0  0  0  0  0  0  0  0  0
   16.8768   -5.6658    9.2280 C   0  0  0  0  0  0  0  0  0  0  0  0
   18.0113   -5.4367    8.4311 C   0  0  0  0  0  0  0  0  0  0  0  0
   18.9729   -4.5001    8.8484 C   0  0  0  0  0  0  0  0  0  0  0  0
   21.7214   -0.8472   10.6618 O   0  0  0  0  0  0  0  0  0  0  0  0
   19.4735    3.3129   11.2471 C   0  0  0  0  0  0  0  0  0  0  0  0
   18.3315    4.1997   11.6364 C   0  0  0  0  0  0  0  0  0  0  0  0
   18.4622    4.9634   12.8064 C   0  0  0  0  0  0  0  0  0  0  0  0
   17.4115    5.7747   13.2175 C   0  0  0  0  0  0  0  0  0  0  0  0
   16.2352    5.8198   12.4718 C   0  0  0  0  0  0  0  0  0  0  0  0
   16.1011    5.0460   11.3088 C   0  0  0  0  0  0  0  0  0  0  0  0
   17.1443    4.2257   10.8858 C   0  0  0  0  0  0  0  0  0  0  0  0
   19.2517    1.7660   13.1218 N   0  0  0  0  0  0  0  0  0  0  0  0
   17.1554    0.9081   13.4602 O   0  0  0  0  0  0  0  0  0  0  0  0
   18.0188    0.1653   16.2480 C   0  0  0  0  0  0  0  0  0  0  0  0
   18.5328   -1.2006   15.7758 C   0  0  0  0  0  0  0  0  0  0  0  0
   18.3803    0.3374   17.7335 C   0  0  0  0  0  0  0  0  0  0  0  0
   18.0197    4.7935   16.8299 N   0  0  0  0  0  0  0  0  0  0  0  0
   18.6846    5.9801   17.3241 C   0  0  0  0  0  0  0  0  0  0  0  0
   19.9294    3.6403   16.3222 O   0  0  0  0  0  0  0  0  0  0  0  0
   18.9953    6.9891   16.2762 C   0  0  0  0  0  0  0  0  0  0  0  0
   20.2225    7.0207   15.6693 C   0  0  0  0  0  0  0  0  0  0  0  0
   20.3125    8.2886   14.5894 S   0  0  0  0  0  0  0  0  0  0  0  0
   18.7307    8.7888   15.0421 C   0  0  0  0  0  0  0  0  0  0  0  0
   18.1165    8.0025   15.9343 N   0  0  0  0  0  0  0  0  0  0  0  0
   18.1816    9.9248   14.2326 C   0  0  0  0  0  0  0  0  0  0  0  0
   18.9340   11.2391   14.1181 C   0  0  0  0  0  0  0  0  0  0  0  0
   16.8002   10.2915   14.6608 C   0  0  0  0  0  0  0  0  0  0  0  0
   16.6034    4.9037   16.9342 C   0  0  0  0  0  0  0  0  0  0  0  0
   18.0383    2.2168    4.5555 H   0  0  0  0  0  0  0  0  0  0  0  0
   19.4512   -0.6155    1.9191 H   0  0  0  0  0  0  0  0  0  0  0  0
   16.7257   -1.2569    5.9366 H   0  0  0  0  0  0  0  0  0  0  0  0
   16.5661    0.4814    6.3772 H   0  0  0  0  0  0  0  0  0  0  0  0
   20.1089   -0.7141    8.4871 H   0  0  0  0  0  0  0  0  0  0  0  0
   18.4179   -1.0518   10.8938 H   0  0  0  0  0  0  0  0  0  0  0  0
   20.4094   -0.6656   12.2518 H   0  0  0  0  0  0  0  0  0  0  0  0
   20.2359    1.2364    9.9051 H   0  0  0  0  0  0  0  0  0  0  0  0
   21.2807    1.5036   11.3048 H   0  0  0  0  0  0  0  0  0  0  0  0
   18.2215    1.5440   11.2967 H   0  0  0  0  0  0  0  0  0  0  0  0
   19.6170    1.4374   15.5230 H   0  0  0  0  0  0  0  0  0  0  0  0
   16.9603    2.6217   16.1088 H   0  0  0  0  0  0  0  0  0  0  0  0
   19.6624   -2.9439   11.7443 H   0  0  0  0  0  0  0  0  0  0  0  0
   20.7170   -3.0094   10.3205 H   0  0  0  0  0  0  0  0  0  0  0  0
   17.5308   -3.4885   11.7881 H   0  0  0  0  0  0  0  0  0  0  0  0
   15.8330   -5.1386   11.0556 H   0  0  0  0  0  0  0  0  0  0  0  0
   16.1171   -6.3874    8.9161 H   0  0  0  0  0  0  0  0  0  0  0  0
   18.1388   -5.9832    7.4935 H   0  0  0  0  0  0  0  0  0  0  0  0
   19.8540   -4.3273    8.2256 H   0  0  0  0  0  0  0  0  0  0  0  0
   22.4098   -0.3840   11.1678 H   0  0  0  0  0  0  0  0  0  0  0  0
   19.6389    3.3767   10.1619 H   0  0  0  0  0  0  0  0  0  0  0  0
   20.3931    3.6745   11.7418 H   0  0  0  0  0  0  0  0  0  0  0  0
   19.3882    4.9116   13.3781 H   0  0  0  0  0  0  0  0  0  0  0  0
   17.5105    6.3714   14.1171 H   0  0  0  0  0  0  0  0  0  0  0  0
   15.4146    6.4582   12.7929 H   0  0  0  0  0  0  0  0  0  0  0  0
   15.1782    5.0900   10.7364 H   0  0  0  0  0  0  0  0  0  0  0  0
   17.0376    3.6185    9.9832 H   0  0  0  0  0  0  0  0  0  0  0  0
   20.0558    2.1427   13.5967 H   0  0  0  0  0  0  0  0  0  0  0  0
   16.9276    0.1416   16.1714 H   0  0  0  0  0  0  0  0  0  0  0  0
   18.1367   -2.0036   16.4180 H   0  0  0  0  0  0  0  0  0  0  0  0
   19.6272   -1.2538   15.8134 H   0  0  0  0  0  0  0  0  0  0  0  0
   18.2079   -1.4094   14.7509 H   0  0  0  0  0  0  0  0  0  0  0  0
   18.0318    1.3053   18.1111 H   0  0  0  0  0  0  0  0  0  0  0  0
   19.4659    0.2834   17.8848 H   0  0  0  0  0  0  0  0  0  0  0  0
   17.9081   -0.4436   18.3414 H   0  0  0  0  0  0  0  0  0  0  0  0
   19.6266    5.6783   17.7788 H   0  0  0  0  0  0  0  0  0  0  0  0
   18.0522    6.4594   18.0752 H   0  0  0  0  0  0  0  0  0  0  0  0
   21.0163    6.3021   15.8623 H   0  0  0  0  0  0  0  0  0  0  0  0
   18.1652    9.5226   13.2172 H   0  0  0  0  0  0  0  0  0  0  0  0
   18.3549   11.9069   13.4533 H   0  0  0  0  0  0  0  0  0  0  0  0
   19.9230   11.1186   13.6632 H   0  0  0  0  0  0  0  0  0  0  0  0
   19.0424   11.7537   15.0826 H   0  0  0  0  0  0  0  0  0  0  0  0
   16.2165    9.3883   14.8071 H   0  0  0  0  0  0  0  0  0  0  0  0
   16.3684   10.8942   13.8616 H   0  0  0  0  0  0  0  0  0  0  0  0
   16.8428   10.8725   15.5862 H   0  0  0  0  0  0  0  0  0  0  0  0
   16.0994    4.0067   16.6089 H   0  0  0  0  0  0  0  0  0  0  0  0
   16.3008    5.7502   16.3151 H   0  0  0  0  0  0  0  0  0  0  0  0
   16.3660    5.0944   17.9875 H   0  0  0  0  0  0  0  0  0  0  0  0
  1  2  2  0  0  0  0
  1  5  1  0  0  0  0
  1 51  1  0  0  0  0
  2  3  1  0  0  0  0
  2  6  1  0  0  0  0
  3  4  1  0  0  0  0
  4  5  2  0  0  0  0
  4 52  1  0  0  0  0
  6  7  1  0  0  0  0
  6 53  1  0  0  0  0
  6 54  1  0  0  0  0
  7  8  1  0  0  0  0
  8  9  1  0  0  0  0
  8 18  2  0  0  0  0
  9 10  1  0  0  0  0
  9 55  1  0  0  0  0
 10 11  1  0  0  0  0
 10 19  1  0  0  0  0
 10 56  1  1  0  0  0
 11 12  1  0  0  0  0
 11 26  1  0  0  0  0
 11 57  1  1  0  0  0
 12 13  1  0  0  0  0
 12 58  1  0  0  0  0
 12 59  1  0  0  0  0
 13 27  1  0  0  0  0
 13 34  1  0  0  0  0
 13 60  1  6  0  0  0
 14 15  1  0  0  0  0
 14 34  1  0  0  0  0
 14 35  2  0  0  0  0
 15 16  1  0  0  0  0
 15 36  1  0  0  0  0
 15 61  1  1  0  0  0
 16 17  1  0  0  0  0
 16 62  1  0  0  0  0
 17 39  1  0  0  0  0
 17 41  2  0  0  0  0
 19 20  1  0  0  0  0
 19 63  1  0  0  0  0
 19 64  1  0  0  0  0
 20 21  2  0  0  0  0
 20 25  1  0  0  0  0
 21 22  1  0  0  0  0
 21 65  1  0  0  0  0
 22 23  2  0  0  0  0
 22 66  1  0  0  0  0
 23 24  1  0  0  0  0
 23 67  1  0  0  0  0
 24 25  2  0  0  0  0
 24 68  1  0  0  0  0
 25 69  1  0  0  0  0
 26 70  1  0  0  0  0
 27 28  1  0  0  0  0
 27 71  1  0  0  0  0
 27 72  1  0  0  0  0
 28 29  2  0  0  0  0
 28 33  1  0  0  0  0
 29 30  1  0  0  0  0
 29 73  1  0  0  0  0
 30 31  2  0  0  0  0
 30 74  1  0  0  0  0
 31 32  1  0  0  0  0
 31 75  1  0  0  0  0
 32 33  2  0  0  0  0
 32 76  1  0  0  0  0
 33 77  1  0  0  0  0
 34 78  1  0  0  0  0
 36 37  1  0  0  0  0
 36 38  1  0  0  0  0
 36 79  1  0  0  0  0
 37 80  1  0  0  0  0
 37 81  1  0  0  0  0
 37 82  1  0  0  0  0
 38 83  1  0  0  0  0
 38 84  1  0  0  0  0
 38 85  1  0  0  0  0
 39 40  1  0  0  0  0
 39 50  1  0  0  0  0
 40 42  1  0  0  0  0
 40 86  1  0  0  0  0
 40 87  1  0  0  0  0
 42 43  2  0  0  0  0
 42 46  1  0  0  0  0
 43 44  1  0  0  0  0
 43 88  1  0  0  0  0
 44 45  1  0  0  0  0
 45 46  2  0  0  0  0
 45 47  1  0  0  0  0
 47 48  1  0  0  0  0
 47 49  1  0  0  0  0
 47 89  1  0  0  0  0
 48 90  1  0  0  0  0
 48 91  1  0  0  0  0
 48 92  1  0  0  0  0
 49 93  1  0  0  0  0
 49 94  1  0  0  0  0
 49 95  1  0  0  0  0
 50 96  1  0  0  0  0
 50 97  1  0  0  0  0
 50 98  1  0  0  0  0
M  END
$$$$
