RIT
 OpenBabel04041915013D

 98101  0  0  1  0  0  0  0  0999 V2000
   16.6093   17.8058    1.5268 C   0  0  0  0  0  0  0  0  0  0  0  0
   16.2192   17.9414    2.8592 C   0  0  0  0  0  0  0  0  0  0  0  0
   17.4092   17.3215    3.9144 S   0  0  0  0  0  0  0  0  0  0  0  0
   18.3784   17.0902    2.5525 C   0  0  0  0  0  0  0  0  0  0  0  0
   17.8879   17.3515    1.3723 N   0  0  0  0  0  0  0  0  0  0  0  0
   14.9992   18.4530    3.5080 C   0  0  0  0  0  0  0  0  0  0  0  0
   15.2070   19.8851    3.7001 O   0  0  0  0  0  0  0  0  0  0  0  0
   14.2068   20.5716    4.3389 C   0  0  0  0  0  0  0  0  0  0  0  0
   14.6571   21.8757    4.5278 N   0  0  0  0  0  0  0  0  0  0  0  0
   13.8146   22.8602    5.2303 C   0  0  2  0  0  0  0  0  0  0  0  0
   13.5064   24.1245    4.4015 C   0  0  2  0  0  0  0  0  0  0  0  0
   12.6775   23.8109    3.1679 C   0  0  0  0  0  0  0  0  0  0  0  0
   11.1748   23.5617    3.3351 C   0  0  2  0  0  0  0  0  0  0  0  0
    9.9413   24.2757    5.3823 C   0  0  0  0  0  0  0  0  0  0  0  0
    9.2881   25.5413    6.0315 C   0  0  1  0  0  0  0  0  0  0  0  0
    7.9429   25.6586    5.4829 N   0  0  0  0  0  0  0  0  0  0  0  0
    7.6571   26.5704    4.5088 C   0  0  0  0  0  0  0  0  0  0  0  0
   13.1289   20.1396    4.6433 O   0  0  0  0  0  0  0  0  0  0  0  0
   14.2934   23.2691    6.6309 C   0  0  0  0  0  0  0  0  0  0  0  0
   14.7878   22.1898    7.5308 C   0  0  0  0  0  0  0  0  0  0  0  0
   13.8097   21.6721    8.3739 C   0  0  0  0  0  0  0  0  0  0  0  0
   14.1006   20.5862    9.1750 C   0  0  0  0  0  0  0  0  0  0  0  0
   15.3762   20.0224    9.1637 C   0  0  0  0  0  0  0  0  0  0  0  0
   16.3841   20.5706    8.3666 C   0  0  0  0  0  0  0  0  0  0  0  0
   16.0998   21.6723    7.5507 C   0  0  0  0  0  0  0  0  0  0  0  0
   14.7679   24.6689    3.9854 O   0  0  0  0  0  0  0  0  0  0  0  0
   10.5814   23.5810    1.9285 C   0  0  0  0  0  0  0  0  0  0  0  0
    9.2189   22.9776    1.9631 C   0  0  0  0  0  0  0  0  0  0  0  0
    8.1251   23.8396    2.0148 C   0  0  0  0  0  0  0  0  0  0  0  0
    6.8461   23.3161    2.0346 C   0  0  0  0  0  0  0  0  0  0  0  0
    6.6578   21.9459    2.0258 C   0  0  0  0  0  0  0  0  0  0  0  0
    7.7529   21.0846    2.0042 C   0  0  0  0  0  0  0  0  0  0  0  0
    9.0451   21.5924    1.9881 C   0  0  0  0  0  0  0  0  0  0  0  0
   10.5090   24.5769    4.1425 N   0  0  0  0  0  0  0  0  0  0  0  0
    9.9612   23.1889    5.8692 O   0  0  0  0  0  0  0  0  0  0  0  0
    9.2391   25.5376    7.5639 C   0  0  0  0  0  0  0  0  0  0  0  0
   10.5785   25.2846    8.2622 C   0  0  0  0  0  0  0  0  0  0  0  0
    8.5805   26.8260    8.0889 C   0  0  0  0  0  0  0  0  0  0  0  0
    6.4272   26.4372    3.9169 N   0  0  0  0  0  0  0  0  0  0  0  0
    5.9620   27.3947    2.9572 C   0  0  0  0  0  0  0  0  0  0  0  0
    8.4686   27.3989    4.1678 O   0  0  0  0  0  0  0  0  0  0  0  0
    5.9485   26.8600    1.5726 C   0  0  0  0  0  0  0  0  0  0  0  0
    7.0227   27.0044    0.7428 C   0  0  0  0  0  0  0  0  0  0  0  0
    6.7131   26.3139   -0.7420 S   0  0  0  0  0  0  0  0  0  0  0  0
    5.1616   25.8279   -0.1819 C   0  0  0  0  0  0  0  0  0  0  0  0
    4.8456   26.2251    1.0443 N   0  0  0  0  0  0  0  0  0  0  0  0
    4.4794   24.8230   -1.0512 C   0  0  0  0  0  0  0  0  0  0  0  0
    4.1490   25.1484   -2.5031 C   0  0  0  0  0  0  0  0  0  0  0  0
    3.2079   24.3485   -0.4356 C   0  0  0  0  0  0  0  0  0  0  0  0
    5.4455   25.4677    4.2649 C   0  0  0  0  0  0  0  0  0  0  0  0
   16.0297   18.0276    0.6323 H   0  0  0  0  0  0  0  0  0  0  0  0
   19.3686   16.7373    2.6740 H   0  0  0  0  0  0  0  0  0  0  0  0
   14.9419   17.9224    4.4634 H   0  0  0  0  0  0  0  0  0  0  0  0
   14.1400   18.2179    2.8828 H   0  0  0  0  0  0  0  0  0  0  0  0
   15.5574   22.1256    4.1681 H   0  0  0  0  0  0  0  0  0  0  0  0
   12.8616   22.3910    5.3769 H   0  0  0  0  0  0  0  0  0  0  0  0
   12.9784   24.8752    5.0099 H   0  0  0  0  0  0  0  0  0  0  0  0
   13.0942   22.9062    2.7110 H   0  0  0  0  0  0  0  0  0  0  0  0
   12.8093   24.6303    2.4526 H   0  0  0  0  0  0  0  0  0  0  0  0
   10.9971   22.5777    3.7789 H   0  0  0  0  0  0  0  0  0  0  0  0
    9.8674   26.3981    5.6838 H   0  0  0  0  0  0  0  0  0  0  0  0
    7.1959   25.1657    5.9412 H   0  0  0  0  0  0  0  0  0  0  0  0
   13.3808   23.6661    7.1366 H   0  0  0  0  0  0  0  0  0  0  0  0
   15.0189   24.0806    6.6221 H   0  0  0  0  0  0  0  0  0  0  0  0
   12.8140   22.1157    8.3600 H   0  0  0  0  0  0  0  0  0  0  0  0
   13.3145   20.1808    9.7984 H   0  0  0  0  0  0  0  0  0  0  0  0
   15.5741   19.1552    9.7882 H   0  0  0  0  0  0  0  0  0  0  0  0
   17.3824   20.1372    8.3758 H   0  0  0  0  0  0  0  0  0  0  0  0
   16.8856   22.0918    6.9264 H   0  0  0  0  0  0  0  0  0  0  0  0
   14.5992   25.4518    3.4426 H   0  0  0  0  0  0  0  0  0  0  0  0
   11.2116   23.0122    1.2350 H   0  0  0  0  0  0  0  0  0  0  0  0
   10.5055   24.6139    1.5509 H   0  0  0  0  0  0  0  0  0  0  0  0
    8.2974   24.9098    2.0167 H   0  0  0  0  0  0  0  0  0  0  0  0
    5.9998   23.9770    2.0389 H   0  0  0  0  0  0  0  0  0  0  0  0
    5.6535   21.5371    2.0332 H   0  0  0  0  0  0  0  0  0  0  0  0
    7.5965   20.0134    1.9948 H   0  0  0  0  0  0  0  0  0  0  0  0
    9.9028   20.9194    1.9769 H   0  0  0  0  0  0  0  0  0  0  0  0
   10.3742   25.4997    3.7670 H   0  0  0  0  0  0  0  0  0  0  0  0
    8.5857   24.7205    7.8608 H   0  0  0  0  0  0  0  0  0  0  0  0
   10.4556   25.3399    9.3538 H   0  0  0  0  0  0  0  0  0  0  0  0
   11.3480   26.0072    7.9708 H   0  0  0  0  0  0  0  0  0  0  0  0
   10.9448   24.2775    8.0301 H   0  0  0  0  0  0  0  0  0  0  0  0
    7.6299   27.0148    7.5735 H   0  0  0  0  0  0  0  0  0  0  0  0
    9.2217   27.7045    7.9497 H   0  0  0  0  0  0  0  0  0  0  0  0
    8.3550   26.7262    9.1577 H   0  0  0  0  0  0  0  0  0  0  0  0
    6.6363   28.2528    2.9661 H   0  0  0  0  0  0  0  0  0  0  0  0
    4.9544   27.7039    3.2277 H   0  0  0  0  0  0  0  0  0  0  0  0
    7.9556   27.4889    1.0282 H   0  0  0  0  0  0  0  0  0  0  0  0
    5.2013   24.0013   -1.0990 H   0  0  0  0  0  0  0  0  0  0  0  0
    3.6928   24.2526   -2.9440 H   0  0  0  0  0  0  0  0  0  0  0  0
    5.0458   25.3842   -3.0798 H   0  0  0  0  0  0  0  0  0  0  0  0
    3.4327   25.9720   -2.5833 H   0  0  0  0  0  0  0  0  0  0  0  0
    3.3701   24.1409    0.6184 H   0  0  0  0  0  0  0  0  0  0  0  0
    2.9207   23.4366   -0.9601 H   0  0  0  0  0  0  0  0  0  0  0  0
    2.4355   25.1128   -0.5583 H   0  0  0  0  0  0  0  0  0  0  0  0
    5.8063   24.7703    5.0050 H   0  0  0  0  0  0  0  0  0  0  0  0
    5.1865   24.9386    3.3633 H   0  0  0  0  0  0  0  0  0  0  0  0
    4.5729   26.0080    4.6306 H   0  0  0  0  0  0  0  0  0  0  0  0
  1  5  1  0  0  0  0
  1  2  2  0  0  0  0
  1 51  1  0  0  0  0
  2  6  1  0  0  0  0
  2  3  1  0  0  0  0
  3  4  1  0  0  0  0
  4  5  2  0  0  0  0
  4 52  1  0  0  0  0
  6  7  1  0  0  0  0
  6 53  1  0  0  0  0
  6 54  1  0  0  0  0
  7  8  1  0  0  0  0
  8 18  2  0  0  0  0
  8  9  1  0  0  0  0
  9 10  1  0  0  0  0
  9 55  1  0  0  0  0
 10 19  1  0  0  0  0
 10 11  1  0  0  0  0
 10 56  1  1  0  0  0
 11 26  1  0  0  0  0
 11 12  1  0  0  0  0
 11 57  1  1  0  0  0
 12 13  1  0  0  0  0
 12 58  1  0  0  0  0
 12 59  1  0  0  0  0
 13 34  1  0  0  0  0
 13 27  1  0  0  0  0
 13 60  1  1  0  0  0
 14 34  1  0  0  0  0
 14 35  2  0  0  0  0
 14 15  1  0  0  0  0
 15 36  1  0  0  0  0
 15 16  1  0  0  0  0
 15 61  1  6  0  0  0
 16 17  1  0  0  0  0
 16 62  1  0  0  0  0
 17 41  2  0  0  0  0
 17 39  1  0  0  0  0
 19 20  1  0  0  0  0
 19 63  1  0  0  0  0
 19 64  1  0  0  0  0
 20 25  2  0  0  0  0
 20 21  1  0  0  0  0
 21 22  2  0  0  0  0
 21 65  1  0  0  0  0
 22 23  1  0  0  0  0
 22 66  1  0  0  0  0
 23 24  2  0  0  0  0
 23 67  1  0  0  0  0
 24 25  1  0  0  0  0
 24 68  1  0  0  0  0
 25 69  1  0  0  0  0
 26 70  1  0  0  0  0
 27 28  1  0  0  0  0
 27 71  1  0  0  0  0
 27 72  1  0  0  0  0
 28 33  2  0  0  0  0
 28 29  1  0  0  0  0
 29 30  2  0  0  0  0
 29 73  1  0  0  0  0
 30 31  1  0  0  0  0
 30 74  1  0  0  0  0
 31 32  2  0  0  0  0
 31 75  1  0  0  0  0
 32 33  1  0  0  0  0
 32 76  1  0  0  0  0
 33 77  1  0  0  0  0
 34 78  1  0  0  0  0
 36 38  1  0  0  0  0
 36 37  1  0  0  0  0
 36 79  1  0  0  0  0
 37 80  1  0  0  0  0
 37 81  1  0  0  0  0
 37 82  1  0  0  0  0
 38 83  1  0  0  0  0
 38 84  1  0  0  0  0
 38 85  1  0  0  0  0
 39 50  1  0  0  0  0
 39 40  1  0  0  0  0
 40 42  1  0  0  0  0
 40 86  1  0  0  0  0
 40 87  1  0  0  0  0
 42 46  1  0  0  0  0
 42 43  2  0  0  0  0
 43 44  1  0  0  0  0
 43 88  1  0  0  0  0
 44 45  1  0  0  0  0
 45 47  1  0  0  0  0
 45 46  2  0  0  0  0
 47 49  1  0  0  0  0
 47 48  1  0  0  0  0
 47 89  1  0  0  0  0
 48 90  1  0  0  0  0
 48 91  1  0  0  0  0
 48 92  1  0  0  0  0
 49 93  1  0  0  0  0
 49 94  1  0  0  0  0
 49 95  1  0  0  0  0
 50 96  1  0  0  0  0
 50 97  1  0  0  0  0
 50 98  1  0  0  0  0
M  END
$$$$
