RPR
 OpenBabel04041914313D

 66 68  0  0  1  0  0  0  0  0999 V2000
   12.4943  -14.8818   23.4818 C   0  0  0  0  0  0  0  0  0  0  0  0
   12.9052  -13.6010   23.8801 C   0  0  0  0  0  0  0  0  0  0  0  0
   14.0631  -13.5025   24.6704 C   0  0  0  0  0  0  0  0  0  0  0  0
   14.7804  -14.6347   25.0550 C   0  0  0  0  0  0  0  0  0  0  0  0
   14.3533  -15.8959   24.6552 C   0  0  0  0  0  0  0  0  0  0  0  0
   13.2048  -16.0303   23.8669 C   0  0  0  0  0  0  0  0  0  0  0  0
   10.0752  -11.2188   22.9823 C   0  0  0  0  0  0  0  0  0  0  0  0
   10.7911  -10.0878   22.5831 C   0  0  0  0  0  0  0  0  0  0  0  0
   12.1882  -10.1035   22.6420 C   0  0  0  0  0  0  0  0  0  0  0  0
   12.8615  -11.2462   23.0652 C   0  0  0  0  0  0  0  0  0  0  0  0
   12.1661  -12.3995   23.4543 C   0  0  0  0  0  0  0  0  0  0  0  0
   10.7591  -12.3628   23.4124 C   0  0  0  0  0  0  0  0  0  0  0  0
   10.0579   -8.8658   22.1545 C   0  0  0  0  0  0  0  0  0  0  0  0
   10.7662   -7.9923   21.3621 N   0  0  0  0  0  0  0  0  0  0  0  0
   10.2744   -6.6692   20.9864 C   0  0  2  0  0  0  0  0  0  0  0  0
   10.7743   -6.3476   19.5792 C   0  0  0  0  0  0  0  0  0  0  0  0
   10.6941   -5.6065   22.0347 C   0  0  2  0  0  0  0  0  0  0  0  0
   10.0296   -4.2768   21.6853 C   0  0  0  0  0  0  0  0  0  0  0  0
    8.6747   -4.4013   21.6785 O   0  0  0  0  0  0  0  0  0  0  0  0
   12.2378   -5.4837   22.1211 C   0  0  0  0  0  0  0  0  0  0  0  0
   12.7691  -17.3768   23.3828 C   0  0  0  0  0  0  0  0  0  0  0  0
   13.2749  -17.6291   22.0180 N   0  3  0  0  0  0  0  0  0  0  0  0
   12.2653   -4.5255   24.4903 C   0  0  0  0  0  0  0  0  0  0  0  0
   12.8570   -3.7505   25.5081 C   0  0  0  0  0  0  0  0  0  0  0  0
   14.0604   -3.0869   25.2118 C   0  0  0  0  0  0  0  0  0  0  0  0
   14.6387   -3.1759   23.9462 C   0  0  0  0  0  0  0  0  0  0  0  0
   14.0233   -3.9312   22.9551 C   0  0  0  0  0  0  0  0  0  0  0  0
   12.8267   -4.6112   23.2101 C   0  0  0  0  0  0  0  0  0  0  0  0
   12.2213   -3.6361   26.8403 C   0  0  0  0  0  0  0  0  0  0  0  0
   12.9285   -3.2687   27.8893 N   0  0  0  0  0  0  0  0  0  0  0  0
   10.9402   -3.8989   26.9898 N   0  0  0  0  0  0  0  0  0  0  0  0
   10.6317   -3.2343   21.4473 O   0  0  0  0  0  0  0  0  0  0  0  0
    8.9038   -8.6736   22.5138 O   0  0  0  0  0  0  0  0  0  0  0  0
    7.9513   -3.2670   21.1818 C   0  0  0  0  0  0  0  0  0  0  0  0
   11.6077  -14.9794   22.8557 H   0  0  0  0  0  0  0  0  0  0  0  0
   14.4190  -12.5305   25.0088 H   0  0  0  0  0  0  0  0  0  0  0  0
   15.6693  -14.5263   25.6739 H   0  0  0  0  0  0  0  0  0  0  0  0
   14.9240  -16.7650   24.9771 H   0  0  0  0  0  0  0  0  0  0  0  0
    8.9862  -11.2153   22.9628 H   0  0  0  0  0  0  0  0  0  0  0  0
   12.7838   -9.2348   22.3847 H   0  0  0  0  0  0  0  0  0  0  0  0
   13.9497  -11.2215   23.0827 H   0  0  0  0  0  0  0  0  0  0  0  0
   10.1719  -13.2228   23.7301 H   0  0  0  0  0  0  0  0  0  0  0  0
   11.6744   -8.2620   21.0104 H   0  0  0  0  0  0  0  0  0  0  0  0
    9.1800   -6.7275   20.9561 H   0  0  0  0  0  0  0  0  0  0  0  0
   10.4260   -5.3664   19.2480 H   0  0  0  0  0  0  0  0  0  0  0  0
   10.4125   -7.0964   18.8675 H   0  0  0  0  0  0  0  0  0  0  0  0
   11.8687   -6.3646   19.5244 H   0  0  0  0  0  0  0  0  0  0  0  0
   10.3091   -5.9174   23.0145 H   0  0  0  0  0  0  0  0  0  0  0  0
   12.6225   -5.1185   21.1620 H   0  0  0  0  0  0  0  0  0  0  0  0
   12.6779   -6.4792   22.2713 H   0  0  0  0  0  0  0  0  0  0  0  0
   11.6775  -17.4486   23.3464 H   0  0  0  0  0  0  0  0  0  0  0  0
   13.1515  -18.1771   24.0235 H   0  0  0  0  0  0  0  0  0  0  0  0
   12.9837  -18.5507   21.6738 H   0  0  0  0  0  0  0  0  0  0  0  0
   12.9319  -16.9165   21.3624 H   0  0  0  0  0  0  0  0  0  0  0  0
   11.3582   -5.0838   24.6900 H   0  0  0  0  0  0  0  0  0  0  0  0
   14.5708   -2.4693   25.9447 H   0  0  0  0  0  0  0  0  0  0  0  0
   15.5660   -2.6508   23.7270 H   0  0  0  0  0  0  0  0  0  0  0  0
   14.4918   -3.9873   21.9733 H   0  0  0  0  0  0  0  0  0  0  0  0
   12.5176   -3.1667   28.8074 H   0  0  0  0  0  0  0  0  0  0  0  0
   13.9201   -3.0771   27.8160 H   0  0  0  0  0  0  0  0  0  0  0  0
   10.4733   -3.8308   27.8830 H   0  0  0  0  0  0  0  0  0  0  0  0
    6.8823   -3.4975   21.2305 H   0  0  0  0  0  0  0  0  0  0  0  0
    8.2107   -3.0801   20.1347 H   0  0  0  0  0  0  0  0  0  0  0  0
    8.1411   -2.3795   21.7929 H   0  0  0  0  0  0  0  0  0  0  0  0
   14.3013  -17.5864   21.9994 H   0  0  0  0  0  0  0  0  0  0  0  0
   10.3574   -4.1490   26.1989 H   0  0  0  0  0  0  0  0  0  0  0  0
  1  6  2  0  0  0  0
  1  2  1  0  0  0  0
  1 35  1  0  0  0  0
  2 11  1  0  0  0  0
  2  3  2  0  0  0  0
  3  4  1  0  0  0  0
  3 36  1  0  0  0  0
  4  5  2  0  0  0  0
  4 37  1  0  0  0  0
  5  6  1  0  0  0  0
  5 38  1  0  0  0  0
  6 21  1  0  0  0  0
  7  8  2  0  0  0  0
  7 12  1  0  0  0  0
  7 39  1  0  0  0  0
  8  9  1  0  0  0  0
  8 13  1  0  0  0  0
  9 10  2  0  0  0  0
  9 40  1  0  0  0  0
 10 11  1  0  0  0  0
 10 41  1  0  0  0  0
 11 12  2  0  0  0  0
 12 42  1  0  0  0  0
 13 33  2  0  0  0  0
 13 14  1  0  0  0  0
 14 15  1  0  0  0  0
 14 43  1  0  0  0  0
 15 17  1  0  0  0  0
 15 16  1  0  0  0  0
 15 44  1  6  0  0  0
 16 45  1  0  0  0  0
 16 46  1  0  0  0  0
 16 47  1  0  0  0  0
 17 20  1  0  0  0  0
 17 18  1  0  0  0  0
 17 48  1  1  0  0  0
 18 32  2  0  0  0  0
 18 19  1  0  0  0  0
 19 34  1  0  0  0  0
 20 28  1  0  0  0  0
 20 49  1  0  0  0  0
 20 50  1  0  0  0  0
 21 22  1  0  0  0  0
 21 51  1  0  0  0  0
 21 52  1  0  0  0  0
 22 53  1  0  0  0  0
 22 54  1  0  0  0  0
 22 65  1  0  0  0  0
 23 28  1  0  0  0  0
 23 24  2  0  0  0  0
 23 55  1  0  0  0  0
 24 29  1  0  0  0  0
 24 25  1  0  0  0  0
 25 26  2  0  0  0  0
 25 56  1  0  0  0  0
 26 27  1  0  0  0  0
 26 57  1  0  0  0  0
 27 28  2  0  0  0  0
 27 58  1  0  0  0  0
 29 31  2  0  0  0  0
 29 30  1  0  0  0  0
 30 59  1  0  0  0  0
 30 60  1  0  0  0  0
 31 61  1  0  0  0  0
 31 66  1  0  0  0  0
 34 62  1  0  0  0  0
 34 63  1  0  0  0  0
 34 64  1  0  0  0  0
M  CHG  1  22   1
M  END
$$$$
