RRP
 OpenBabel04041915523D

 50 53  0  0  0  0  0  0  0  0999 V2000
    7.7721    0.4245   16.6630 N   0  0  0  0  0  0  0  0  0  0  0  0
    6.6656    1.0104   17.0686 C   0  0  0  0  0  0  0  0  0  0  0  0
    5.6596    1.1450   16.2179 N   0  0  0  0  0  0  0  0  0  0  0  0
    6.5407    1.5189   18.4541 C   0  0  0  0  0  0  0  0  0  0  0  0
    5.6962    2.6068   18.7615 C   0  0  0  0  0  0  0  0  0  0  0  0
    5.5657    3.0957   20.0740 C   0  0  0  0  0  0  0  0  0  0  0  0
    6.2797    2.4664   21.0991 C   0  0  0  0  0  0  0  0  0  0  0  0
    7.1290    1.3991   20.8183 C   0  0  0  0  0  0  0  0  0  0  0  0
    7.2587    0.9293   19.5097 C   0  0  0  0  0  0  0  0  0  0  0  0
    4.6357    4.2538   20.3835 C   0  0  0  0  0  0  0  0  0  0  0  0
    5.2760    5.2894   21.1889 N   0  0  0  0  0  0  0  0  0  0  0  0
    4.9025    5.4411   22.5215 C   0  0  0  0  0  0  0  0  0  0  0  0
    4.1264    4.6614   23.0762 O   0  0  0  0  0  0  0  0  0  0  0  0
    5.5962    6.5381   23.3150 C   0  0  0  0  0  0  0  0  0  0  0  0
    5.9833    7.6889   22.4627 N   0  0  0  0  0  0  0  0  0  0  0  0
    6.8881    7.2532   21.3820 C   0  0  0  0  0  0  0  0  0  0  0  0
    6.2091    6.1941   20.5126 C   0  0  0  0  0  0  0  0  0  0  0  0
    6.4808    9.0768   23.3098 S   0  0  0  0  0  0  0  0  0  0  0  0
    6.8470   10.0944   22.3558 O   0  0  0  0  0  0  0  0  0  0  0  0
    5.5204    9.3147   24.3647 O   0  0  0  0  0  0  0  0  0  0  0  0
    7.9627    8.6130   24.1806 C   0  0  0  0  0  0  0  0  0  0  0  0
    8.0787    7.9968   25.4016 C   0  0  0  0  0  0  0  0  0  0  0  0
    9.4208    7.7149   25.7686 C   0  0  0  0  0  0  0  0  0  0  0  0
   10.3236    8.1322   24.7829 C   0  0  0  0  0  0  0  0  0  0  0  0
    9.4820    8.8438   23.4463 S   0  0  0  0  0  0  0  0  0  0  0  0
   11.7091    7.9463   24.9459 C   0  0  0  0  0  0  0  0  0  0  0  0
   12.1668    7.3369   26.1191 C   0  0  0  0  0  0  0  0  0  0  0  0
   13.8570    7.1044   26.3494 Cl  0  0  0  0  0  0  0  0  0  0  0  0
   11.2863    6.9220   27.1108 C   0  0  0  0  0  0  0  0  0  0  0  0
    9.9159    7.1046   26.9377 C   0  0  0  0  0  0  0  0  0  0  0  0
    8.5670    0.3271   17.2841 H   0  0  0  0  0  0  0  0  0  0  0  0
    4.7835    1.5561   16.5135 H   0  0  0  0  0  0  0  0  0  0  0  0
    5.7098    0.8115   15.2689 H   0  0  0  0  0  0  0  0  0  0  0  0
    5.1315    3.1031   17.9754 H   0  0  0  0  0  0  0  0  0  0  0  0
    6.1738    2.8042   22.1291 H   0  0  0  0  0  0  0  0  0  0  0  0
    7.6790    0.9261   21.6305 H   0  0  0  0  0  0  0  0  0  0  0  0
    7.9140    0.0761   19.3490 H   0  0  0  0  0  0  0  0  0  0  0  0
    3.7403    3.8615   20.8797 H   0  0  0  0  0  0  0  0  0  0  0  0
    4.2946    4.7278   19.4549 H   0  0  0  0  0  0  0  0  0  0  0  0
    6.4859    6.0879   23.7710 H   0  0  0  0  0  0  0  0  0  0  0  0
    4.9112    6.8572   24.1066 H   0  0  0  0  0  0  0  0  0  0  0  0
    7.7983    6.8284   21.8182 H   0  0  0  0  0  0  0  0  0  0  0  0
    7.1747    8.0981   20.7480 H   0  0  0  0  0  0  0  0  0  0  0  0
    5.6545    6.6872   19.7055 H   0  0  0  0  0  0  0  0  0  0  0  0
    6.9904    5.5807   20.0486 H   0  0  0  0  0  0  0  0  0  0  0  0
    7.2116    7.7552   26.0112 H   0  0  0  0  0  0  0  0  0  0  0  0
   12.4110    8.2758   24.1834 H   0  0  0  0  0  0  0  0  0  0  0  0
   11.6486    6.4601   28.0252 H   0  0  0  0  0  0  0  0  0  0  0  0
    9.2221    6.7835   27.7084 H   0  0  0  0  0  0  0  0  0  0  0  0
    7.8859    0.0661   15.7252 H   0  0  0  0  0  0  0  0  0  0  0  0
  1  2  2  0  0  0  0
  1 31  1  0  0  0  0
  1 50  1  0  0  0  0
  2  3  1  0  0  0  0
  2  4  1  0  0  0  0
  3 32  1  0  0  0  0
  3 33  1  0  0  0  0
  4  5  2  0  0  0  0
  4  9  1  0  0  0  0
  5  6  1  0  0  0  0
  5 34  1  0  0  0  0
  6  7  2  0  0  0  0
  6 10  1  0  0  0  0
  7  8  1  0  0  0  0
  7 35  1  0  0  0  0
  8  9  2  0  0  0  0
  8 36  1  0  0  0  0
  9 37  1  0  0  0  0
 10 11  1  0  0  0  0
 10 38  1  0  0  0  0
 10 39  1  0  0  0  0
 11 12  1  0  0  0  0
 11 17  1  0  0  0  0
 12 13  2  0  0  0  0
 12 14  1  0  0  0  0
 14 15  1  0  0  0  0
 14 40  1  0  0  0  0
 14 41  1  0  0  0  0
 15 16  1  0  0  0  0
 15 18  1  0  0  0  0
 16 17  1  0  0  0  0
 16 42  1  0  0  0  0
 16 43  1  0  0  0  0
 17 44  1  0  0  0  0
 17 45  1  0  0  0  0
 18 19  2  0  0  0  0
 18 20  2  0  0  0  0
 18 21  1  0  0  0  0
 21 22  2  0  0  0  0
 21 25  1  0  0  0  0
 22 23  1  0  0  0  0
 22 46  1  0  0  0  0
 23 24  2  0  0  0  0
 23 30  1  0  0  0  0
 24 25  1  0  0  0  0
 24 26  1  0  0  0  0
 26 27  2  0  0  0  0
 26 47  1  0  0  0  0
 27 28  1  0  0  0  0
 27 29  1  0  0  0  0
 29 30  2  0  0  0  0
 29 48  1  0  0  0  0
 30 49  1  0  0  0  0
M  END
$$$$
