RRR
 OpenBabel04041915523D

 45 48  0  0  0  0  0  0  0  0999 V2000
    5.8811    2.2945   18.8411 N   0  3  0  0  0  0  0  0  0  0  0  0
    7.0061    1.6384   18.3911 C   0  0  0  0  0  0  0  0  0  0  0  0
    7.9641    1.7448   19.3982 C   0  0  0  0  0  0  0  0  0  0  0  0
    9.2078    1.1373   19.1893 C   0  0  0  0  0  0  0  0  0  0  0  0
    9.4929    0.4820   18.0269 N   0  0  0  0  0  0  0  0  0  0  0  0
    8.5286    0.4149   17.0835 C   0  0  0  0  0  0  0  0  0  0  0  0
    7.2595    0.9659   17.1972 C   0  0  0  0  0  0  0  0  0  0  0  0
    7.3723    2.4797   20.4547 C   0  0  0  0  0  0  0  0  0  0  0  0
    6.0963    2.8272   20.1046 C   0  0  0  0  0  0  0  0  0  0  0  0
    4.9852    3.5238   20.8383 C   0  0  0  0  0  0  0  0  0  0  0  0
    5.4041    4.7789   21.4676 N   0  0  0  0  0  0  0  0  0  0  0  0
    4.9831    5.0419   22.7757 C   0  0  0  0  0  0  0  0  0  0  0  0
    4.4024    4.1980   23.4598 O   0  0  0  0  0  0  0  0  0  0  0  0
    5.3298    6.3960   23.3927 C   0  0  0  0  0  0  0  0  0  0  0  0
    5.9533    7.4271   22.5506 N   0  0  0  0  0  0  0  0  0  0  0  0
    6.7344    6.9119   21.4265 C   0  0  0  0  0  0  0  0  0  0  0  0
    5.9869    5.8358   20.6367 C   0  0  0  0  0  0  0  0  0  0  0  0
    6.5734    8.8055   23.3436 S   0  0  0  0  0  0  0  0  0  0  0  0
    5.7060    9.0095   24.4863 O   0  0  0  0  0  0  0  0  0  0  0  0
    6.6420    9.8020   22.2891 O   0  0  0  0  0  0  0  0  0  0  0  0
    8.2343    8.6069   23.9437 C   0  0  0  0  0  0  0  0  0  0  0  0
    8.4526    7.9284   25.0817 C   0  0  0  0  0  0  0  0  0  0  0  0
    9.7120    7.6683   25.7346 C   0  0  0  0  0  0  0  0  0  0  0  0
    9.8500    6.9209   26.8999 C   0  0  0  0  0  0  0  0  0  0  0  0
   11.1974    6.7429   27.3305 C   0  0  0  0  0  0  0  0  0  0  0  0
   12.0678    7.3664   26.4835 C   0  0  0  0  0  0  0  0  0  0  0  0
   13.7808    7.3687   26.6393 Cl  0  0  0  0  0  0  0  0  0  0  0  0
   11.2858    8.1620   25.1928 S   0  0  0  0  0  0  0  0  0  0  0  0
    5.0199    2.3661   18.3247 H   0  0  0  0  0  0  0  0  0  0  0  0
    9.9943    1.1715   19.9215 H   0  0  0  0  0  0  0  0  0  0  0  0
    8.8250   -0.1309   16.1836 H   0  0  0  0  0  0  0  0  0  0  0  0
    6.5331    0.8716   16.4007 H   0  0  0  0  0  0  0  0  0  0  0  0
    7.8470    2.7218   21.4227 H   0  0  0  0  0  0  0  0  0  0  0  0
    4.6042    2.8398   21.6043 H   0  0  0  0  0  0  0  0  0  0  0  0
    4.1661    3.7434   20.1470 H   0  0  0  0  0  0  0  0  0  0  0  0
    6.0176    6.1971   24.2189 H   0  0  0  0  0  0  0  0  0  0  0  0
    4.3912    6.8062   23.7936 H   0  0  0  0  0  0  0  0  0  0  0  0
    7.6403    6.4859   21.8545 H   0  0  0  0  0  0  0  0  0  0  0  0
    6.9897    7.7295   20.7443 H   0  0  0  0  0  0  0  0  0  0  0  0
    5.2097    6.2754   19.9926 H   0  0  0  0  0  0  0  0  0  0  0  0
    6.7212    5.3586   19.9752 H   0  0  0  0  0  0  0  0  0  0  0  0
    9.0173    9.1660   23.4407 H   0  0  0  0  0  0  0  0  0  0  0  0
    7.5864    7.5106   25.5889 H   0  0  0  0  0  0  0  0  0  0  0  0
    9.0075    6.4953   27.4295 H   0  0  0  0  0  0  0  0  0  0  0  0
   11.5005    6.1808   28.2067 H   0  0  0  0  0  0  0  0  0  0  0  0
  1  2  2  0  0  0  0
  1  9  1  0  0  0  0
  1 29  1  0  0  0  0
  2  3  1  0  0  0  0
  2  7  1  0  0  0  0
  3  4  2  0  0  0  0
  3  8  1  0  0  0  0
  4  5  1  0  0  0  0
  4 30  1  0  0  0  0
  5  6  1  0  0  0  0
  6  7  2  0  0  0  0
  6 31  1  0  0  0  0
  7 32  1  0  0  0  0
  8  9  2  0  0  0  0
  8 33  1  0  0  0  0
  9 10  1  0  0  0  0
 10 11  1  0  0  0  0
 10 34  1  0  0  0  0
 10 35  1  0  0  0  0
 11 12  1  0  0  0  0
 11 17  1  0  0  0  0
 12 13  2  0  0  0  0
 12 14  1  0  0  0  0
 14 15  1  0  0  0  0
 14 36  1  0  0  0  0
 14 37  1  0  0  0  0
 15 16  1  0  0  0  0
 15 18  1  0  0  0  0
 16 17  1  0  0  0  0
 16 38  1  0  0  0  0
 16 39  1  0  0  0  0
 17 40  1  0  0  0  0
 17 41  1  0  0  0  0
 18 19  2  0  0  0  0
 18 20  2  0  0  0  0
 18 21  1  0  0  0  0
 21 22  2  0  0  0  0
 21 42  1  0  0  0  0
 22 23  1  0  0  0  0
 22 43  1  0  0  0  0
 23 24  2  0  0  0  0
 23 28  1  0  0  0  0
 24 25  1  0  0  0  0
 24 44  1  0  0  0  0
 25 26  2  0  0  0  0
 25 45  1  0  0  0  0
 26 27  1  0  0  0  0
 26 28  1  0  0  0  0
M  CHG  1   1   1
M  END
$$$$
