RRS
 OpenBabel04041915453D

 69 71  0  0  1  0  0  0  0  0999 V2000
   47.9341  -40.9339   50.8705 C   0  0  0  0  0  0  0  0  0  0  0  0
   46.7141  -40.9154   50.7134 O   0  0  0  0  0  0  0  0  0  0  0  0
   48.5846  -41.4925   51.9320 N   0  0  0  0  0  0  0  0  0  0  0  0
   47.7385  -42.0481   52.9219 O   0  0  0  0  0  0  0  0  0  0  0  0
   48.8184  -40.2166   49.8869 C   0  0  0  0  0  0  0  0  0  0  0  0
   48.5236  -38.7129   49.9678 C   0  0  2  0  0  0  0  0  0  0  0  0
   49.3512  -38.0888   48.8746 C   0  0  0  0  0  0  0  0  0  0  0  0
   50.5817  -38.0471   48.9192 O   0  0  0  0  0  0  0  0  0  0  0  0
   48.6263  -37.7019   47.7885 N   0  0  0  0  0  0  0  0  0  0  0  0
   49.2783  -37.2320   46.5736 C   0  0  2  0  0  0  0  0  0  0  0  0
   49.4242  -35.6991   46.5526 C   0  0  0  0  0  0  0  0  0  0  0  0
   48.4682  -34.9435   46.7781 O   0  0  0  0  0  0  0  0  0  0  0  0
   50.6731  -35.2341   46.2209 N   0  0  0  0  0  0  0  0  0  0  0  0
   50.9813  -33.8303   46.0321 C   0  0  0  0  0  0  0  0  0  0  0  0
   52.1752  -33.6646   45.0897 C   0  0  0  0  0  0  0  0  0  0  0  0
   51.9597  -34.3033   43.7091 C   0  0  0  0  0  0  0  0  0  0  0  0
   51.0228  -33.5106   42.7891 C   0  0  0  0  0  0  0  0  0  0  0  0
   50.8240  -34.1804   41.4169 C   0  0  0  0  0  0  0  0  0  0  0  0
   49.5763  -35.0697   41.2824 C   0  0  0  0  0  0  0  0  0  0  0  0
   49.5178  -36.1754   42.2257 N   0  3  2  0  0  0  0  0  0  0  0  0
   48.8793  -38.0833   51.3196 C   0  0  0  0  0  0  0  0  0  0  0  0
   48.3895  -36.6301   51.4928 C   0  0  0  0  0  0  0  0  0  0  0  0
   46.8738  -36.4956   51.3376 C   0  0  0  0  0  0  0  0  0  0  0  0
   48.7869  -36.1430   52.8861 C   0  0  0  0  0  0  0  0  0  0  0  0
   48.4459  -37.7143   45.3853 C   0  0  0  0  0  0  0  0  0  0  0  0
   49.0167  -37.3359   44.0675 C   0  0  1  0  0  0  0  0  0  0  0  0
   48.7291  -36.1938   43.3469 C   0  0  0  0  0  0  0  0  0  0  0  0
   49.9857  -38.0656   43.3312 C   0  0  1  0  0  0  0  0  0  0  0  0
   50.2735  -37.3324   42.1769 C   0  0  2  0  0  0  0  0  0  0  0  0
   50.6493  -39.2872   43.5682 C   0  0  0  0  0  0  0  0  0  0  0  0
   51.2068  -37.7916   41.2366 C   0  0  0  0  0  0  0  0  0  0  0  0
   51.5761  -39.7509   42.6366 C   0  0  0  0  0  0  0  0  0  0  0  0
   51.8460  -39.0110   41.4899 C   0  0  0  0  0  0  0  0  0  0  0  0
   49.5883  -41.4925   52.0713 H   0  0  0  0  0  0  0  0  0  0  0  0
   48.3401  -42.3539   53.6184 H   0  0  0  0  0  0  0  0  0  0  0  0
   48.5542  -40.6025   48.8958 H   0  0  0  0  0  0  0  0  0  0  0  0
   49.8762  -40.4469   50.0518 H   0  0  0  0  0  0  0  0  0  0  0  0
   47.4555  -38.5715   49.7673 H   0  0  0  0  0  0  0  0  0  0  0  0
   47.6118  -37.7098   47.8237 H   0  0  0  0  0  0  0  0  0  0  0  0
   50.2837  -37.6717   46.5338 H   0  0  0  0  0  0  0  0  0  0  0  0
   51.4172  -35.9113   46.0758 H   0  0  0  0  0  0  0  0  0  0  0  0
   51.2128  -33.4061   47.0136 H   0  0  0  0  0  0  0  0  0  0  0  0
   50.1027  -33.3011   45.6463 H   0  0  0  0  0  0  0  0  0  0  0  0
   53.0437  -34.1480   45.5593 H   0  0  0  0  0  0  0  0  0  0  0  0
   52.4218  -32.6023   44.9845 H   0  0  0  0  0  0  0  0  0  0  0  0
   51.5771  -35.3176   43.8352 H   0  0  0  0  0  0  0  0  0  0  0  0
   52.9380  -34.4038   43.2243 H   0  0  0  0  0  0  0  0  0  0  0  0
   51.4740  -32.5230   42.6247 H   0  0  0  0  0  0  0  0  0  0  0  0
   50.0548  -33.3447   43.2708 H   0  0  0  0  0  0  0  0  0  0  0  0
   51.7138  -34.7618   41.1521 H   0  0  0  0  0  0  0  0  0  0  0  0
   50.7402  -33.3860   40.6622 H   0  0  0  0  0  0  0  0  0  0  0  0
   49.5398  -35.4954   40.2704 H   0  0  0  0  0  0  0  0  0  0  0  0
   48.6642  -34.4691   41.3939 H   0  0  0  0  0  0  0  0  0  0  0  0
   49.9683  -38.1048   51.4558 H   0  0  0  0  0  0  0  0  0  0  0  0
   48.4508  -38.6804   52.1321 H   0  0  0  0  0  0  0  0  0  0  0  0
   48.8755  -35.9896   50.7449 H   0  0  0  0  0  0  0  0  0  0  0  0
   46.5608  -35.4541   51.4651 H   0  0  0  0  0  0  0  0  0  0  0  0
   46.3508  -37.1017   52.0850 H   0  0  0  0  0  0  0  0  0  0  0  0
   46.5362  -36.8072   50.3462 H   0  0  0  0  0  0  0  0  0  0  0  0
   49.8698  -36.2139   53.0295 H   0  0  0  0  0  0  0  0  0  0  0  0
   48.3026  -36.7507   53.6592 H   0  0  0  0  0  0  0  0  0  0  0  0
   48.4884  -35.1012   53.0392 H   0  0  0  0  0  0  0  0  0  0  0  0
   47.4197  -37.3358   45.4632 H   0  0  0  0  0  0  0  0  0  0  0  0
   48.3619  -38.8095   45.4493 H   0  0  0  0  0  0  0  0  0  0  0  0
   48.0595  -35.3773   43.5872 H   0  0  0  0  0  0  0  0  0  0  0  0
   50.4377  -39.8673   44.4632 H   0  0  0  0  0  0  0  0  0  0  0  0
   51.4313  -37.2245   40.3418 H   0  0  0  0  0  0  0  0  0  0  0  0
   52.0829  -40.6965   42.8112 H   0  0  0  0  0  0  0  0  0  0  0  0
   52.5700  -39.3884   40.7716 H   0  0  0  0  0  0  0  0  0  0  0  0
  1  5  1  0  0  0  0
  1  3  1  0  0  0  0
  1  2  2  0  0  0  0
  3  4  1  0  0  0  0
  3 34  1  0  0  0  0
  4 35  1  0  0  0  0
  5  6  1  0  0  0  0
  5 36  1  0  0  0  0
  5 37  1  0  0  0  0
  6 21  1  0  0  0  0
  6  7  1  0  0  0  0
  6 38  1  6  0  0  0
  7  9  1  0  0  0  0
  7  8  2  0  0  0  0
  9 10  1  0  0  0  0
  9 39  1  0  0  0  0
 10 25  1  0  0  0  0
 10 11  1  0  0  0  0
 10 40  1  6  0  0  0
 11 13  1  0  0  0  0
 11 12  2  0  0  0  0
 13 14  1  0  0  0  0
 13 41  1  0  0  0  0
 14 15  1  0  0  0  0
 14 42  1  0  0  0  0
 14 43  1  0  0  0  0
 15 16  1  0  0  0  0
 15 44  1  0  0  0  0
 15 45  1  0  0  0  0
 16 17  1  0  0  0  0
 16 46  1  0  0  0  0
 16 47  1  0  0  0  0
 17 18  1  0  0  0  0
 17 48  1  0  0  0  0
 17 49  1  0  0  0  0
 18 19  1  0  0  0  0
 18 50  1  0  0  0  0
 18 51  1  0  0  0  0
 19 52  1  0  0  0  0
 19 53  1  0  0  0  0
 20 19  1  1  0  0  0
 20 29  1  0  0  0  0
 20 27  1  0  0  0  0
 21 22  1  0  0  0  0
 21 54  1  0  0  0  0
 21 55  1  0  0  0  0
 22 24  1  0  0  0  0
 22 23  1  0  0  0  0
 22 56  1  0  0  0  0
 23 57  1  0  0  0  0
 23 58  1  0  0  0  0
 23 59  1  0  0  0  0
 24 60  1  0  0  0  0
 24 61  1  0  0  0  0
 24 62  1  0  0  0  0
 25 26  1  0  0  0  0
 25 63  1  0  0  0  0
 25 64  1  0  0  0  0
 26 27  1  1  0  0  0
 26 28  1  0  0  0  0
 27 65  1  0  0  0  0
 28 30  1  1  0  0  0
 28 29  1  0  0  0  0
 29 31  1  1  0  0  0
 30 32  1  0  0  0  0
 30 66  1  0  0  0  0
 31 33  1  0  0  0  0
 31 67  1  0  0  0  0
 32 33  1  0  0  0  0
 32 68  1  0  0  0  0
 33 69  1  0  0  0  0
M  CHG  1  20   1
M  END
$$$$
