RRT
 OpenBabel04041917553D

 31 31  0  0  1  0  0  0  0  0999 V2000
   35.8577   42.7557   -6.8628 S   0  0  0  0  0  0  0  0  0  0  0  0
   35.1759   42.3279   -5.2310 C   0  0  0  0  0  0  0  0  0  0  0  0
   36.2386   42.3412   -4.1108 C   0  0  1  0  0  0  0  0  0  0  0  0
   35.5246   42.6584   -2.7781 C   0  0  0  0  0  0  0  0  0  0  0  0
   36.4704   42.9423   -1.6399 C   0  0  0  0  0  0  0  0  0  0  0  0
   37.2559   44.1040   -1.6594 C   0  0  0  0  0  0  0  0  0  0  0  0
   36.6068   42.0381   -0.5819 C   0  0  0  0  0  0  0  0  0  0  0  0
   38.1607   44.3587   -0.6308 C   0  0  0  0  0  0  0  0  0  0  0  0
   37.5168   42.2939    0.4444 C   0  0  0  0  0  0  0  0  0  0  0  0
   38.2887   43.4549    0.4180 C   0  0  0  0  0  0  0  0  0  0  0  0
   38.2958   40.9340   -3.7703 C   0  0  0  0  0  0  0  0  0  0  0  0
   39.0569   41.8897   -3.6969 O   0  0  0  0  0  0  0  0  0  0  0  0
   36.9412   41.0609   -4.0149 N   0  0  0  0  0  0  0  0  0  0  0  0
   38.7337   39.5233   -3.4691 C   0  0  0  0  0  0  0  0  0  0  0  0
   38.6834   38.6461   -4.7013 C   0  0  0  0  0  0  0  0  0  0  0  0
   37.5617   38.6193   -5.2955 O   0  0  0  0  0  0  0  0  0  0  0  0
   39.7281   37.9691   -4.9455 O   0  0  0  0  0  0  0  0  0  0  0  0
   36.7926   41.7915   -6.8812 H   0  0  0  0  0  0  0  0  0  0  0  0
   34.6889   41.3513   -5.2995 H   0  0  0  0  0  0  0  0  0  0  0  0
   34.3974   43.0711   -5.0301 H   0  0  0  0  0  0  0  0  0  0  0  0
   36.9753   43.1267   -4.3129 H   0  0  0  0  0  0  0  0  0  0  0  0
   34.8498   41.8360   -2.5112 H   0  0  0  0  0  0  0  0  0  0  0  0
   34.8890   43.5468   -2.8925 H   0  0  0  0  0  0  0  0  0  0  0  0
   37.1937   44.7942   -2.4960 H   0  0  0  0  0  0  0  0  0  0  0  0
   36.0309   41.1166   -0.5677 H   0  0  0  0  0  0  0  0  0  0  0  0
   38.7845   45.2473   -0.6720 H   0  0  0  0  0  0  0  0  0  0  0  0
   37.6405   41.5741    1.2458 H   0  0  0  0  0  0  0  0  0  0  0  0
   39.0124   43.6442    1.2065 H   0  0  0  0  0  0  0  0  0  0  0  0
   36.4502   40.1768   -4.1769 H   0  0  0  0  0  0  0  0  0  0  0  0
   38.0731   39.0967   -2.7061 H   0  0  0  0  0  0  0  0  0  0  0  0
   39.7392   39.5462   -3.0478 H   0  0  0  0  0  0  0  0  0  0  0  0
  1  2  1  0  0  0  0
  1 18  1  0  0  0  0
  2  3  1  0  0  0  0
  2 19  1  0  0  0  0
  2 20  1  0  0  0  0
  3  4  1  0  0  0  0
  3 13  1  0  0  0  0
  3 21  1  6  0  0  0
  4  5  1  0  0  0  0
  4 22  1  0  0  0  0
  4 23  1  0  0  0  0
  5  6  2  0  0  0  0
  5  7  1  0  0  0  0
  6  8  1  0  0  0  0
  6 24  1  0  0  0  0
  7  9  2  0  0  0  0
  7 25  1  0  0  0  0
  8 10  2  0  0  0  0
  8 26  1  0  0  0  0
  9 10  1  0  0  0  0
  9 27  1  0  0  0  0
 10 28  1  0  0  0  0
 11 12  2  0  0  0  0
 11 13  1  0  0  0  0
 11 14  1  0  0  0  0
 13 29  1  0  0  0  0
 14 15  1  0  0  0  0
 14 30  1  0  0  0  0
 14 31  1  0  0  0  0
 15 16  2  0  0  0  0
 15 17  1  0  0  0  0
M  END
$$$$
