RTL
 OpenBabel04041916433D

 51 51  0  0  0  0  0  0  0  0999 V2000
   29.6220   21.3257   45.3256 C   0  0  0  0  0  0  0  0  0  0  0  0
   29.3214   21.3907   43.8150 C   0  0  0  0  0  0  0  0  0  0  0  0
   30.4340   20.8363   42.9663 C   0  0  0  0  0  0  0  0  0  0  0  0
   30.6836   19.3823   43.2927 C   0  0  0  0  0  0  0  0  0  0  0  0
   30.8858   19.1689   44.7841 C   0  0  0  0  0  0  0  0  0  0  0  0
   30.3688   20.0108   45.7106 C   0  0  0  0  0  0  0  0  0  0  0  0
   30.4420   19.7386   47.1608 C   0  0  0  0  0  0  0  0  0  0  0  0
   31.5379   19.5620   47.8954 C   0  0  0  0  0  0  0  0  0  0  0  0
   31.6253   19.2720   49.3298 C   0  0  0  0  0  0  0  0  0  0  0  0
   32.8567   19.1014   49.8323 C   0  0  0  0  0  0  0  0  0  0  0  0
   33.2543   18.8764   51.2038 C   0  0  0  0  0  0  0  0  0  0  0  0
   34.5169   18.6672   51.5947 C   0  0  0  0  0  0  0  0  0  0  0  0
   34.9576   18.4885   52.9743 C   0  0  0  0  0  0  0  0  0  0  0  0
   36.2634   18.2407   53.2178 C   0  0  0  0  0  0  0  0  0  0  0  0
   36.7286   18.0434   54.6372 C   0  0  0  0  0  0  0  0  0  0  0  0
   28.2553   21.4735   46.0235 C   0  0  0  0  0  0  0  0  0  0  0  0
   30.4562   22.5739   45.6883 C   0  0  0  0  0  0  0  0  0  0  0  0
   31.7117   17.9173   45.0189 C   0  0  0  0  0  0  0  0  0  0  0  0
   30.3285   19.1598   50.1156 C   0  0  0  0  0  0  0  0  0  0  0  0
   33.9232   18.6034   54.0852 C   0  0  0  0  0  0  0  0  0  0  0  0
   38.1244   17.7900   54.8734 O   0  0  0  0  0  0  0  0  0  0  0  0
   29.1576   22.4286   43.4876 H   0  0  0  0  0  0  0  0  0  0  0  0
   28.4195   20.8084   43.5962 H   0  0  0  0  0  0  0  0  0  0  0  0
   31.3428   21.4173   43.1490 H   0  0  0  0  0  0  0  0  0  0  0  0
   30.1428   20.9420   41.9147 H   0  0  0  0  0  0  0  0  0  0  0  0
   31.5781   19.0664   42.7394 H   0  0  0  0  0  0  0  0  0  0  0  0
   29.8449   18.7702   42.9318 H   0  0  0  0  0  0  0  0  0  0  0  0
   29.4576   19.7061   47.6480 H   0  0  0  0  0  0  0  0  0  0  0  0
   32.4914   19.6225   47.3681 H   0  0  0  0  0  0  0  0  0  0  0  0
   33.6931   19.1333   49.1295 H   0  0  0  0  0  0  0  0  0  0  0  0
   32.4399   18.9140   51.9246 H   0  0  0  0  0  0  0  0  0  0  0  0
   35.2890   18.6168   50.8238 H   0  0  0  0  0  0  0  0  0  0  0  0
   36.9841   18.1757   52.4089 H   0  0  0  0  0  0  0  0  0  0  0  0
   36.1936   17.1781   55.0249 H   0  0  0  0  0  0  0  0  0  0  0  0
   36.4917   18.9589   55.1756 H   0  0  0  0  0  0  0  0  0  0  0  0
   28.3692   21.4900   47.1097 H   0  0  0  0  0  0  0  0  0  0  0  0
   27.6049   20.6358   45.7559 H   0  0  0  0  0  0  0  0  0  0  0  0
   27.7445   22.4018   45.7377 H   0  0  0  0  0  0  0  0  0  0  0  0
   31.4349   22.5477   45.1985 H   0  0  0  0  0  0  0  0  0  0  0  0
   30.6120   22.6370   46.7693 H   0  0  0  0  0  0  0  0  0  0  0  0
   29.9557   23.5063   45.3760 H   0  0  0  0  0  0  0  0  0  0  0  0
   31.8692   17.7210   46.0764 H   0  0  0  0  0  0  0  0  0  0  0  0
   32.7022   18.0353   44.5574 H   0  0  0  0  0  0  0  0  0  0  0  0
   31.2517   17.0269   44.5770 H   0  0  0  0  0  0  0  0  0  0  0  0
   29.4456   19.3491   49.5155 H   0  0  0  0  0  0  0  0  0  0  0  0
   30.2898   19.8742   50.9420 H   0  0  0  0  0  0  0  0  0  0  0  0
   30.2081   18.1464   50.5119 H   0  0  0  0  0  0  0  0  0  0  0  0
   32.9178   18.8107   53.7305 H   0  0  0  0  0  0  0  0  0  0  0  0
   34.1591   19.4218   54.7762 H   0  0  0  0  0  0  0  0  0  0  0  0
   33.8447   17.6753   54.6636 H   0  0  0  0  0  0  0  0  0  0  0  0
   38.2166   17.6940   55.8272 H   0  0  0  0  0  0  0  0  0  0  0  0
  1  2  1  0  0  0  0
  1  6  1  0  0  0  0
  1 16  1  0  0  0  0
  1 17  1  0  0  0  0
  2  3  1  0  0  0  0
  2 22  1  0  0  0  0
  2 23  1  0  0  0  0
  3  4  1  0  0  0  0
  3 24  1  0  0  0  0
  3 25  1  0  0  0  0
  4  5  1  0  0  0  0
  4 26  1  0  0  0  0
  4 27  1  0  0  0  0
  5  6  2  0  0  0  0
  5 18  1  0  0  0  0
  6  7  1  0  0  0  0
  7  8  2  0  0  0  0
  7 28  1  0  0  0  0
  8  9  1  0  0  0  0
  8 29  1  0  0  0  0
  9 10  2  0  0  0  0
  9 19  1  0  0  0  0
 10 11  1  0  0  0  0
 10 30  1  0  0  0  0
 11 12  2  0  0  0  0
 11 31  1  0  0  0  0
 12 13  1  0  0  0  0
 12 32  1  0  0  0  0
 13 14  2  0  0  0  0
 13 20  1  0  0  0  0
 14 15  1  0  0  0  0
 14 33  1  0  0  0  0
 15 21  1  0  0  0  0
 15 34  1  0  0  0  0
 15 35  1  0  0  0  0
 16 36  1  0  0  0  0
 16 37  1  0  0  0  0
 16 38  1  0  0  0  0
 17 39  1  0  0  0  0
 17 40  1  0  0  0  0
 17 41  1  0  0  0  0
 18 42  1  0  0  0  0
 18 43  1  0  0  0  0
 18 44  1  0  0  0  0
 19 45  1  0  0  0  0
 19 46  1  0  0  0  0
 19 47  1  0  0  0  0
 20 48  1  0  0  0  0
 20 49  1  0  0  0  0
 20 50  1  0  0  0  0
 21 51  1  0  0  0  0
M  END
$$$$
