S1A
 OpenBabel04041917283D

 81 83  0  0  1  0  0  0  0  0999 V2000
   12.4294   27.1812  115.5403 C   0  0  0  0  0  0  0  0  0  0  0  0
   13.5831   27.6674  114.6420 C   0  0  2  0  0  0  0  0  0  0  0  0
   14.7151   26.6263  114.6793 C   0  0  1  0  0  0  0  0  0  0  0  0
   15.8764   27.0422  113.7141 C   0  0  1  0  0  0  0  0  0  0  0  0
   16.8864   25.8977  113.4920 C   0  0  2  0  0  0  0  0  0  0  0  0
   16.1894   24.5570  113.2427 C   0  0  1  0  0  0  0  0  0  0  0  0
   15.1259   24.3166  114.3290 C   0  0  2  0  0  0  0  0  0  0  0  0
   14.3754   22.9798  114.1273 C   0  0  2  0  0  0  0  0  0  0  0  0
   13.3135   22.7835  115.1970 C   0  0  0  0  0  0  0  0  0  0  0  0
   13.4758   22.0002  116.2799 C   0  0  0  0  0  0  0  0  0  0  0  0
   12.4501   21.9089  117.3863 C   0  0  2  0  0  0  0  0  0  0  0  0
   13.0644   22.2206  118.7752 C   0  0  2  0  0  0  0  0  0  0  0  0
   13.5836   23.6628  118.8350 C   0  0  0  0  0  0  0  0  0  0  0  0
   12.4827   24.6962  118.6579 C   0  0  0  0  0  0  0  0  0  0  0  0
   12.9687   26.0919  119.0144 C   0  0  0  0  0  0  0  0  0  0  0  0
   11.8218   27.0946  118.9613 C   0  0  0  0  0  0  0  0  0  0  0  0
   11.3276   27.4153  117.5491 C   0  0  1  0  0  0  0  0  0  0  0  0
   14.0871   29.0406  115.0899 C   0  0  0  0  0  0  0  0  0  0  0  0
   16.0810   28.5443  111.8970 C   0  0  0  0  0  0  0  0  0  0  0  0
   15.5548   24.5427  111.8528 C   0  0  0  0  0  0  0  0  0  0  0  0
   15.3610   21.8098  114.1131 C   0  0  0  0  0  0  0  0  0  0  0  0
   10.8847   20.4642  116.3807 C   0  0  0  0  0  0  0  0  0  0  0  0
   14.3897   21.1941  120.4432 C   0  0  0  0  0  0  0  0  0  0  0  0
   10.3376   28.5574  117.6461 C   0  0  0  0  0  0  0  0  0  0  0  0
   10.7907   29.8724  117.8340 C   0  0  0  0  0  0  0  0  0  0  0  0
    9.8979   30.8977  118.1379 C   0  0  0  0  0  0  0  0  0  0  0  0
    8.5342   30.6241  118.2290 C   0  0  0  0  0  0  0  0  0  0  0  0
    8.0682   29.3251  118.0137 C   0  0  0  0  0  0  0  0  0  0  0  0
    8.9632   28.2966  117.7134 C   0  0  0  0  0  0  0  0  0  0  0  0
   11.6235   26.3502  115.2459 O   0  0  0  0  0  0  0  0  0  0  0  0
   15.2097   26.5174  116.0169 O   0  0  0  0  0  0  0  0  0  0  0  0
   15.3354   27.4754  112.4480 O   0  0  0  0  0  0  0  0  0  0  0  0
   17.7601   25.7507  114.6211 O   0  0  0  0  0  0  0  0  0  0  0  0
   14.1666   25.3788  114.2741 O   0  0  0  0  0  0  0  0  0  0  0  0
   11.8514   20.6022  117.4136 O   0  0  0  0  0  0  0  0  0  0  0  0
   14.1459   21.3025  119.0534 O   0  0  0  0  0  0  0  0  0  0  0  0
   12.4381   27.8310  116.7530 O   0  0  0  0  0  0  0  0  0  0  0  0
   13.1894   27.7709  113.6213 H   0  0  0  0  0  0  0  0  0  0  0  0
   16.4066   27.8880  114.1661 H   0  0  0  0  0  0  0  0  0  0  0  0
   17.5203   26.1220  112.6243 H   0  0  0  0  0  0  0  0  0  0  0  0
   16.9325   23.7536  113.2923 H   0  0  0  0  0  0  0  0  0  0  0  0
   15.6041   24.3090  115.3185 H   0  0  0  0  0  0  0  0  0  0  0  0
   13.8824   23.0037  113.1485 H   0  0  0  0  0  0  0  0  0  0  0  0
   12.3700   23.3240  115.0719 H   0  0  0  0  0  0  0  0  0  0  0  0
   14.3985   21.4345  116.4132 H   0  0  0  0  0  0  0  0  0  0  0  0
   11.6495   22.6382  117.2077 H   0  0  0  0  0  0  0  0  0  0  0  0
   12.2950   22.0785  119.5491 H   0  0  0  0  0  0  0  0  0  0  0  0
   14.3364   23.8061  118.0527 H   0  0  0  0  0  0  0  0  0  0  0  0
   14.0704   23.8298  119.7984 H   0  0  0  0  0  0  0  0  0  0  0  0
   11.6334   24.4395  119.3006 H   0  0  0  0  0  0  0  0  0  0  0  0
   12.1506   24.7003  117.6163 H   0  0  0  0  0  0  0  0  0  0  0  0
   13.7627   26.3911  118.3251 H   0  0  0  0  0  0  0  0  0  0  0  0
   13.3820   26.0785  120.0316 H   0  0  0  0  0  0  0  0  0  0  0  0
   12.1697   28.0216  119.4291 H   0  0  0  0  0  0  0  0  0  0  0  0
   10.9821   26.7039  119.5487 H   0  0  0  0  0  0  0  0  0  0  0  0
   10.8264   26.5243  117.1531 H   0  0  0  0  0  0  0  0  0  0  0  0
   13.2821   29.7790  115.0560 H   0  0  0  0  0  0  0  0  0  0  0  0
   14.8982   29.3884  114.4490 H   0  0  0  0  0  0  0  0  0  0  0  0
   14.4655   28.9937  116.1170 H   0  0  0  0  0  0  0  0  0  0  0  0
   15.6430   28.8399  110.9414 H   0  0  0  0  0  0  0  0  0  0  0  0
   17.1153   28.2408  111.7467 H   0  0  0  0  0  0  0  0  0  0  0  0
   16.0457   29.3999  112.5775 H   0  0  0  0  0  0  0  0  0  0  0  0
   16.3152   24.7026  111.0861 H   0  0  0  0  0  0  0  0  0  0  0  0
   14.7937   25.3211  111.7653 H   0  0  0  0  0  0  0  0  0  0  0  0
   15.0727   23.5840  111.6498 H   0  0  0  0  0  0  0  0  0  0  0  0
   14.8214   20.8713  113.9523 H   0  0  0  0  0  0  0  0  0  0  0  0
   15.8994   21.7551  115.0662 H   0  0  0  0  0  0  0  0  0  0  0  0
   16.1015   21.9115  113.3178 H   0  0  0  0  0  0  0  0  0  0  0  0
   10.4521   19.4604  116.4134 H   0  0  0  0  0  0  0  0  0  0  0  0
   11.3528   20.6128  115.4052 H   0  0  0  0  0  0  0  0  0  0  0  0
   10.0834   21.1976  116.5174 H   0  0  0  0  0  0  0  0  0  0  0  0
   15.2111   20.4937  120.6176 H   0  0  0  0  0  0  0  0  0  0  0  0
   13.4952   20.8275  120.9528 H   0  0  0  0  0  0  0  0  0  0  0  0
   14.6695   22.1657  120.8540 H   0  0  0  0  0  0  0  0  0  0  0  0
   11.8553   30.0877  117.7797 H   0  0  0  0  0  0  0  0  0  0  0  0
   10.2654   31.9063  118.3083 H   0  0  0  0  0  0  0  0  0  0  0  0
    7.8382   31.4194  118.4653 H   0  0  0  0  0  0  0  0  0  0  0  0
    7.0041   29.1141  118.0861 H   0  0  0  0  0  0  0  0  0  0  0  0
    8.5917   27.2844  117.5607 H   0  0  0  0  0  0  0  0  0  0  0  0
   15.5932   27.3646  116.2832 H   0  0  0  0  0  0  0  0  0  0  0  0
   18.2127   26.5947  114.7809 H   0  0  0  0  0  0  0  0  0  0  0  0
  1  2  1  0  0  0  0
  1 30  2  0  0  0  0
  1 37  1  0  0  0  0
  2  3  1  0  0  0  0
  2 18  1  0  0  0  0
  2 38  1  6  0  0  0
  3  4  1  0  0  0  0
  3 31  1  1  0  0  0
  3 34  1  0  0  0  0
  4  5  1  0  0  0  0
  4 32  1  0  0  0  0
  4 39  1  1  0  0  0
  5  6  1  0  0  0  0
  5 33  1  0  0  0  0
  5 40  1  6  0  0  0
  6  7  1  0  0  0  0
  6 20  1  0  0  0  0
  6 41  1  1  0  0  0
  7  8  1  0  0  0  0
  7 34  1  0  0  0  0
  7 42  1  1  0  0  0
  8  9  1  0  0  0  0
  8 21  1  0  0  0  0
  8 43  1  6  0  0  0
  9 10  2  0  0  0  0
  9 44  1  0  0  0  0
 10 11  1  0  0  0  0
 10 45  1  0  0  0  0
 11 12  1  0  0  0  0
 11 35  1  0  0  0  0
 11 46  1  6  0  0  0
 12 13  1  0  0  0  0
 12 36  1  0  0  0  0
 12 47  1  1  0  0  0
 13 14  1  0  0  0  0
 13 48  1  0  0  0  0
 13 49  1  0  0  0  0
 14 15  1  0  0  0  0
 14 50  1  0  0  0  0
 14 51  1  0  0  0  0
 15 16  1  0  0  0  0
 15 52  1  0  0  0  0
 15 53  1  0  0  0  0
 16 17  1  0  0  0  0
 16 54  1  0  0  0  0
 16 55  1  0  0  0  0
 17 24  1  0  0  0  0
 17 37  1  0  0  0  0
 17 56  1  6  0  0  0
 18 57  1  0  0  0  0
 18 58  1  0  0  0  0
 18 59  1  0  0  0  0
 19 32  1  0  0  0  0
 19 60  1  0  0  0  0
 19 61  1  0  0  0  0
 19 62  1  0  0  0  0
 20 63  1  0  0  0  0
 20 64  1  0  0  0  0
 20 65  1  0  0  0  0
 21 66  1  0  0  0  0
 21 67  1  0  0  0  0
 21 68  1  0  0  0  0
 22 35  1  0  0  0  0
 22 69  1  0  0  0  0
 22 70  1  0  0  0  0
 22 71  1  0  0  0  0
 23 36  1  0  0  0  0
 23 72  1  0  0  0  0
 23 73  1  0  0  0  0
 23 74  1  0  0  0  0
 24 25  2  0  0  0  0
 24 29  1  0  0  0  0
 25 26  1  0  0  0  0
 25 75  1  0  0  0  0
 26 27  2  0  0  0  0
 26 76  1  0  0  0  0
 27 28  1  0  0  0  0
 27 77  1  0  0  0  0
 28 29  2  0  0  0  0
 28 78  1  0  0  0  0
 29 79  1  0  0  0  0
 31 80  1  0  0  0  0
 33 81  1  0  0  0  0
M  END
$$$$
