SAH
 OpenBabel04041916003D

 46 48  0  0  1  0  0  0  0  0999 V2000
   32.0737   21.0402    2.3399 N   0  3  0  0  0  0  0  0  0  0  0  0
   32.7784   20.0688    1.4090 C   0  0  1  0  0  0  0  0  0  0  0  0
   31.9407   19.8445    0.1452 C   0  0  0  0  0  0  0  0  0  0  0  0
   31.6554   21.1290   -0.6387 C   0  0  0  0  0  0  0  0  0  0  0  0
   30.5438   20.8054   -2.0488 S   0  0  0  0  0  0  0  0  0  0  0  0
   34.1914   20.6067    1.0487 C   0  0  0  0  0  0  0  0  0  0  0  0
   34.3229   21.7975    1.4768 O   0  0  0  0  0  0  0  0  0  0  0  0
   34.9569   19.8332    0.4402 O   0  0  0  0  0  0  0  0  0  0  0  0
   29.9288   22.5043   -2.3159 C   0  0  0  0  0  0  0  0  0  0  0  0
   28.8030   22.5691   -3.3553 C   0  0  1  0  0  0  0  0  0  0  0  0
   28.2113   23.8908   -3.2660 O   0  0  0  0  0  0  0  0  0  0  0  0
   29.2332   22.3602   -4.8179 C   0  0  1  0  0  0  0  0  0  0  0  0
   28.3375   21.4835   -5.5227 O   0  0  0  0  0  0  0  0  0  0  0  0
   29.1385   23.7514   -5.4364 C   0  0  1  0  0  0  0  0  0  0  0  0
   28.8197   23.7305   -6.8238 O   0  0  0  0  0  0  0  0  0  0  0  0
   28.0440   24.4065   -4.5990 C   0  0  2  0  0  0  0  0  0  0  0  0
   28.0738   25.8524   -4.5493 N   0  3  0  0  0  0  0  0  0  0  0  0
   29.1810   26.6570   -4.4677 C   0  0  0  0  0  0  0  0  0  0  0  0
   28.8639   27.9329   -4.4190 N   0  0  0  0  0  0  0  0  0  0  0  0
   27.4860   27.9560   -4.4654 C   0  0  0  0  0  0  0  0  0  0  0  0
   26.5596   29.0119   -4.4185 C   0  0  0  0  0  0  0  0  0  0  0  0
   26.9357   30.3323   -4.2566 N   0  0  0  0  0  0  0  0  0  0  0  0
   25.2429   28.7134   -4.5082 N   0  0  0  0  0  0  0  0  0  0  0  0
   24.8790   27.4109   -4.6094 C   0  0  0  0  0  0  0  0  0  0  0  0
   25.6780   26.3249   -4.6467 N   0  0  0  0  0  0  0  0  0  0  0  0
   26.9635   26.6725   -4.5694 C   0  0  0  0  0  0  0  0  0  0  0  0
   32.7027   21.1631    3.1465 H   0  0  0  0  0  0  0  0  0  0  0  0
   32.1576   21.9708    1.9004 H   0  0  0  0  0  0  0  0  0  0  0  0
   32.8771   19.1398    1.9796 H   0  0  0  0  0  0  0  0  0  0  0  0
   30.9978   19.3661    0.4378 H   0  0  0  0  0  0  0  0  0  0  0  0
   32.4659   19.1304   -0.5051 H   0  0  0  0  0  0  0  0  0  0  0  0
   32.5788   21.5833   -1.0098 H   0  0  0  0  0  0  0  0  0  0  0  0
   31.1503   21.8490    0.0105 H   0  0  0  0  0  0  0  0  0  0  0  0
   30.7564   23.1642   -2.5967 H   0  0  0  0  0  0  0  0  0  0  0  0
   29.5385   22.8739   -1.3596 H   0  0  0  0  0  0  0  0  0  0  0  0
   28.0117   21.8619   -3.0775 H   0  0  0  0  0  0  0  0  0  0  0  0
   30.2382   21.9388   -4.9181 H   0  0  0  0  0  0  0  0  0  0  0  0
   27.4222   21.6425   -5.2403 H   0  0  0  0  0  0  0  0  0  0  0  0
   30.1040   24.2511   -5.3133 H   0  0  0  0  0  0  0  0  0  0  0  0
   28.2130   22.9773   -6.9722 H   0  0  0  0  0  0  0  0  0  0  0  0
   27.0543   24.1034   -4.9619 H   0  0  0  0  0  0  0  0  0  0  0  0
   30.1926   26.2757   -4.4440 H   0  0  0  0  0  0  0  0  0  0  0  0
   26.2267   31.0229   -4.4496 H   0  0  0  0  0  0  0  0  0  0  0  0
   27.9134   30.5462   -4.4075 H   0  0  0  0  0  0  0  0  0  0  0  0
   23.8138   27.2305   -4.6628 H   0  0  0  0  0  0  0  0  0  0  0  0
   31.1258   20.8020    2.6226 H   0  0  0  0  0  0  0  0  0  0  0  0
  1  2  1  0  0  0  0
  1 27  1  0  0  0  0
  1 28  1  0  0  0  0
  1 46  1  0  0  0  0
  2  3  1  0  0  0  0
  2  6  1  0  0  0  0
  2 29  1  1  0  0  0
  3  4  1  0  0  0  0
  3 30  1  0  0  0  0
  3 31  1  0  0  0  0
  4  5  1  0  0  0  0
  4 32  1  0  0  0  0
  4 33  1  0  0  0  0
  5  9  1  0  0  0  0
  6  7  2  0  0  0  0
  6  8  1  0  0  0  0
  9 10  1  0  0  0  0
  9 34  1  0  0  0  0
  9 35  1  0  0  0  0
 10 11  1  0  0  0  0
 10 12  1  0  0  0  0
 10 36  1  1  0  0  0
 11 16  1  0  0  0  0
 12 13  1  0  0  0  0
 12 14  1  0  0  0  0
 12 37  1  6  0  0  0
 13 38  1  0  0  0  0
 14 15  1  0  0  0  0
 14 16  1  0  0  0  0
 14 39  1  1  0  0  0
 15 40  1  0  0  0  0
 16 17  1  0  0  0  0
 16 41  1  6  0  0  0
 17 18  2  0  0  0  0
 17 26  1  0  0  0  0
 18 19  1  0  0  0  0
 18 42  1  0  0  0  0
 19 20  1  0  0  0  0
 20 21  2  0  0  0  0
 20 26  1  0  0  0  0
 21 22  1  0  0  0  0
 21 23  1  0  0  0  0
 22 43  1  0  0  0  0
 22 44  1  0  0  0  0
 23 24  2  0  0  0  0
 24 25  1  0  0  0  0
 24 45  1  0  0  0  0
 25 26  2  0  0  0  0
M  CHG  2   1   1  17   1
M  END
$$$$
