SAH
 OpenBabel04041916333D

 46 48  0  0  1  0  0  0  0  0999 V2000
   12.0958   37.0652   22.6259 N   0  3  0  0  0  0  0  0  0  0  0  0
   12.9386   38.2274   22.1675 C   0  0  1  0  0  0  0  0  0  0  0  0
   14.3659   37.8134   21.7629 C   0  0  0  0  0  0  0  0  0  0  0  0
   14.7593   36.3348   21.8287 C   0  0  0  0  0  0  0  0  0  0  0  0
   16.5066   36.1183   21.2880 S   0  0  0  0  0  0  0  0  0  0  0  0
   12.3409   38.9952   20.9508 C   0  0  0  0  0  0  0  0  0  0  0  0
   12.0123   38.2200   20.0081 O   0  0  0  0  0  0  0  0  0  0  0  0
   12.1583   40.2214   21.1412 O   0  0  0  0  0  0  0  0  0  0  0  0
   17.3065   35.3765   22.7693 C   0  0  0  0  0  0  0  0  0  0  0  0
   17.1685   36.1996   24.0592 C   0  0  1  0  0  0  0  0  0  0  0  0
   17.4882   35.3567   25.1998 O   0  0  0  0  0  0  0  0  0  0  0  0
   18.0738   37.4309   24.1351 C   0  0  1  0  0  0  0  0  0  0  0  0
   17.3794   38.5420   24.7241 O   0  0  0  0  0  0  0  0  0  0  0  0
   19.2348   36.9492   25.0078 C   0  0  1  0  0  0  0  0  0  0  0  0
   19.8950   38.0011   25.6961 O   0  0  0  0  0  0  0  0  0  0  0  0
   18.5586   35.9600   25.9603 C   0  0  2  0  0  0  0  0  0  0  0  0
   19.3819   34.9170   26.5499 N   0  3  0  0  0  0  0  0  0  0  0  0
   20.4191   34.2143   25.9493 C   0  0  0  0  0  0  0  0  0  0  0  0
   20.9617   33.3479   26.7762 N   0  0  0  0  0  0  0  0  0  0  0  0
   20.2621   33.4752   27.9587 C   0  0  0  0  0  0  0  0  0  0  0  0
   20.3567   32.8212   29.2042 C   0  0  0  0  0  0  0  0  0  0  0  0
   21.2764   31.8311   29.4824 N   0  0  0  0  0  0  0  0  0  0  0  0
   19.5027   33.1892   30.1883 N   0  0  0  0  0  0  0  0  0  0  0  0
   18.6106   34.1464   29.9260 C   0  0  0  0  0  0  0  0  0  0  0  0
   18.4181   34.8515   28.7841 N   0  0  0  0  0  0  0  0  0  0  0  0
   19.2853   34.4545   27.8379 C   0  0  0  0  0  0  0  0  0  0  0  0
   12.4889   36.5838   23.4323 H   0  0  0  0  0  0  0  0  0  0  0  0
   11.1627   37.4319   22.8635 H   0  0  0  0  0  0  0  0  0  0  0  0
   12.9697   38.8959   23.0342 H   0  0  0  0  0  0  0  0  0  0  0  0
   15.0430   38.3822   22.4111 H   0  0  0  0  0  0  0  0  0  0  0  0
   14.5584   38.1683   20.7421 H   0  0  0  0  0  0  0  0  0  0  0  0
   14.1240   35.7454   21.1591 H   0  0  0  0  0  0  0  0  0  0  0  0
   14.6316   35.9401   22.8373 H   0  0  0  0  0  0  0  0  0  0  0  0
   18.3691   35.2330   22.5286 H   0  0  0  0  0  0  0  0  0  0  0  0
   16.8964   34.3705   22.9105 H   0  0  0  0  0  0  0  0  0  0  0  0
   16.1244   36.4895   24.1891 H   0  0  0  0  0  0  0  0  0  0  0  0
   18.4119   37.7736   23.1529 H   0  0  0  0  0  0  0  0  0  0  0  0
   16.9795   38.3051   25.5756 H   0  0  0  0  0  0  0  0  0  0  0  0
   19.9594   36.4503   24.3566 H   0  0  0  0  0  0  0  0  0  0  0  0
   19.2269   38.5102   26.1914 H   0  0  0  0  0  0  0  0  0  0  0  0
   18.1190   36.5243   26.7945 H   0  0  0  0  0  0  0  0  0  0  0  0
   20.7219   34.3837   24.9324 H   0  0  0  0  0  0  0  0  0  0  0  0
   21.2818   31.4296   30.4074 H   0  0  0  0  0  0  0  0  0  0  0  0
   21.9408   31.5613   28.7719 H   0  0  0  0  0  0  0  0  0  0  0  0
   17.9375   34.4164   30.7480 H   0  0  0  0  0  0  0  0  0  0  0  0
   11.9419   36.4449   21.8166 H   0  0  0  0  0  0  0  0  0  0  0  0
  1  2  1  0  0  0  0
  1 27  1  0  0  0  0
  1 28  1  0  0  0  0
  1 46  1  0  0  0  0
  2  6  1  0  0  0  0
  2  3  1  0  0  0  0
  2 29  1  1  0  0  0
  3  4  1  0  0  0  0
  3 30  1  0  0  0  0
  3 31  1  0  0  0  0
  4  5  1  0  0  0  0
  4 32  1  0  0  0  0
  4 33  1  0  0  0  0
  5  9  1  0  0  0  0
  6  8  2  0  0  0  0
  6  7  1  0  0  0  0
  9 10  1  0  0  0  0
  9 34  1  0  0  0  0
  9 35  1  0  0  0  0
 10 12  1  0  0  0  0
 10 11  1  0  0  0  0
 10 36  1  1  0  0  0
 11 16  1  0  0  0  0
 12 14  1  0  0  0  0
 12 13  1  0  0  0  0
 12 37  1  6  0  0  0
 13 38  1  0  0  0  0
 14 16  1  0  0  0  0
 14 15  1  0  0  0  0
 14 39  1  6  0  0  0
 15 40  1  0  0  0  0
 16 17  1  0  0  0  0
 16 41  1  1  0  0  0
 17 26  1  0  0  0  0
 17 18  2  0  0  0  0
 18 19  1  0  0  0  0
 18 42  1  0  0  0  0
 19 20  1  0  0  0  0
 20 26  2  0  0  0  0
 20 21  1  0  0  0  0
 21 23  2  0  0  0  0
 21 22  1  0  0  0  0
 22 43  1  0  0  0  0
 22 44  1  0  0  0  0
 23 24  1  0  0  0  0
 24 25  2  0  0  0  0
 24 45  1  0  0  0  0
 25 26  1  0  0  0  0
M  CHG  2   1   1  17   1
M  END
$$$$
