SB1
 OpenBabel04041914403D

 70 71  0  0  1  0  0  0  0  0999 V2000
    8.1364  -38.3896    0.9004 N   0  0  0  0  0  0  0  0  0  0  0  0
    8.7929  -39.4002    1.5950 C   0  0  0  0  0  0  0  0  0  0  0  0
    9.4921  -39.1863    2.5371 O   0  0  0  0  0  0  0  0  0  0  0  0
    8.5476  -40.8635    1.1210 C   0  0  0  0  0  0  0  0  0  0  0  0
    9.0157  -41.2070    0.0410 O   0  0  0  0  0  0  0  0  0  0  0  0
    7.7536  -41.8137    2.0564 C   0  0  0  0  0  0  0  0  0  0  0  0
    7.1020  -42.9160    1.2102 C   0  0  0  0  0  0  0  0  0  0  0  0
    6.3086  -42.1684    0.2570 O   0  0  0  0  0  0  0  0  0  0  0  0
    5.4463  -42.8323   -0.5180 C   0  0  0  0  0  0  0  0  0  0  0  0
    5.2886  -44.0394   -0.4658 O   0  0  0  0  0  0  0  0  0  0  0  0
    4.7347  -41.9118   -1.4732 C   0  0  0  0  0  0  0  0  0  0  0  0
    3.4070  -42.4613   -1.9647 C   0  0  0  0  0  0  0  0  0  0  0  0
    2.8260  -41.5608   -3.0540 C   0  0  0  0  0  0  0  0  0  0  0  0
    2.1961  -40.2710   -2.5378 C   0  0  0  0  0  0  0  0  0  0  0  0
    1.3687  -40.4380   -1.2691 C   0  0  0  0  0  0  0  0  0  0  0  0
    1.1176  -39.0908   -0.6297 C   0  0  0  0  0  0  0  0  0  0  0  0
    2.3072  -38.6666    0.2166 C   0  0  0  0  0  0  0  0  0  0  0  0
    2.0605  -37.2717    0.7597 C   0  0  0  0  0  0  0  0  0  0  0  0
    3.3049  -36.7219    1.4362 C   0  0  0  0  0  0  0  0  0  0  0  0
    3.6957  -37.5100    2.6866 C   0  0  0  0  0  0  0  0  0  0  0  0
    4.9573  -36.9332    3.3261 C   0  0  0  0  0  0  0  0  0  0  0  0
    6.0875  -37.3844    2.5272 O   0  0  0  0  0  0  0  0  0  0  0  0
    7.0985  -36.5171    2.3085 C   0  0  0  0  0  0  0  0  0  0  0  0
    7.1112  -35.3513    2.6962 O   0  0  0  0  0  0  0  0  0  0  0  0
    8.2632  -37.0290    1.4155 C   0  0  2  0  0  0  0  0  0  0  0  0
    8.4932  -36.0634    0.2541 C   0  0  0  0  0  0  0  0  0  0  0  0
    7.4620  -36.2349   -0.8541 C   0  0  0  0  0  0  0  0  0  0  0  0
    7.3808  -37.6982   -1.2714 C   0  0  0  0  0  0  0  0  0  0  0  0
    7.0897  -38.5755   -0.0754 C   0  0  0  0  0  0  0  0  0  0  0  0
    6.5980  -41.1168    2.7737 C   0  0  0  0  0  0  0  0  0  0  0  0
    8.6618  -42.4523    3.0872 C   0  0  0  0  0  0  0  0  0  0  0  0
    6.4660  -43.5620    1.8465 H   0  0  0  0  0  0  0  0  0  0  0  0
    7.8453  -43.5568    0.7057 H   0  0  0  0  0  0  0  0  0  0  0  0
    5.3836  -41.7679   -2.3407 H   0  0  0  0  0  0  0  0  0  0  0  0
    4.5495  -40.9497   -0.9844 H   0  0  0  0  0  0  0  0  0  0  0  0
    2.7161  -42.5560   -1.1268 H   0  0  0  0  0  0  0  0  0  0  0  0
    3.5406  -43.4735   -2.3574 H   0  0  0  0  0  0  0  0  0  0  0  0
    2.0690  -42.1210   -3.6103 H   0  0  0  0  0  0  0  0  0  0  0  0
    3.6292  -41.2918   -3.7541 H   0  0  0  0  0  0  0  0  0  0  0  0
    1.5423  -39.8558   -3.3168 H   0  0  0  0  0  0  0  0  0  0  0  0
    2.9915  -39.5408   -2.3515 H   0  0  0  0  0  0  0  0  0  0  0  0
    1.8910  -41.0503   -0.5368 H   0  0  0  0  0  0  0  0  0  0  0  0
    0.4154  -40.9153   -1.5059 H   0  0  0  0  0  0  0  0  0  0  0  0
    0.2305  -39.1459    0.0071 H   0  0  0  0  0  0  0  0  0  0  0  0
    0.9479  -38.3435   -1.4108 H   0  0  0  0  0  0  0  0  0  0  0  0
    3.2244  -38.6730   -0.3852 H   0  0  0  0  0  0  0  0  0  0  0  0
    2.4396  -39.3744    1.0440 H   0  0  0  0  0  0  0  0  0  0  0  0
    1.2279  -37.3024    1.4723 H   0  0  0  0  0  0  0  0  0  0  0  0
    1.7760  -36.6098   -0.0697 H   0  0  0  0  0  0  0  0  0  0  0  0
    3.1117  -35.6803    1.7126 H   0  0  0  0  0  0  0  0  0  0  0  0
    4.1304  -36.7439    0.7162 H   0  0  0  0  0  0  0  0  0  0  0  0
    3.8923  -38.5522    2.4087 H   0  0  0  0  0  0  0  0  0  0  0  0
    2.8639  -37.4857    3.3995 H   0  0  0  0  0  0  0  0  0  0  0  0
    5.0576  -37.3346    4.3455 H   0  0  0  0  0  0  0  0  0  0  0  0
    4.8809  -35.8392    3.3883 H   0  0  0  0  0  0  0  0  0  0  0  0
    9.1398  -36.9676    2.0729 H   0  0  0  0  0  0  0  0  0  0  0  0
    9.4834  -36.2633   -0.1680 H   0  0  0  0  0  0  0  0  0  0  0  0
    8.4588  -35.0297    0.6097 H   0  0  0  0  0  0  0  0  0  0  0  0
    7.7516  -35.6209   -1.7129 H   0  0  0  0  0  0  0  0  0  0  0  0
    6.4818  -35.8960   -0.4976 H   0  0  0  0  0  0  0  0  0  0  0  0
    8.3450  -37.9952   -1.6980 H   0  0  0  0  0  0  0  0  0  0  0  0
    6.5988  -37.8206   -2.0199 H   0  0  0  0  0  0  0  0  0  0  0  0
    6.1456  -38.2860    0.3927 H   0  0  0  0  0  0  0  0  0  0  0  0
    7.0099  -39.6181   -0.3638 H   0  0  0  0  0  0  0  0  0  0  0  0
    6.9625  -40.2934    3.3828 H   0  0  0  0  0  0  0  0  0  0  0  0
    6.0858  -41.8357    3.4290 H   0  0  0  0  0  0  0  0  0  0  0  0
    5.8534  -40.7256    2.0682 H   0  0  0  0  0  0  0  0  0  0  0  0
    9.1528  -41.6828    3.6869 H   0  0  0  0  0  0  0  0  0  0  0  0
    9.4316  -43.0730    2.6157 H   0  0  0  0  0  0  0  0  0  0  0  0
    8.0740  -43.0901    3.7589 H   0  0  0  0  0  0  0  0  0  0  0  0
  1 29  1  0  0  0  0
  1 25  1  0  0  0  0
  1  2  1  0  0  0  0
  2  4  1  0  0  0  0
  2  3  2  0  0  0  0
  4  6  1  0  0  0  0
  4  5  2  0  0  0  0
  6 31  1  0  0  0  0
  6 30  1  0  0  0  0
  6  7  1  0  0  0  0
  7  8  1  0  0  0  0
  7 32  1  0  0  0  0
  7 33  1  0  0  0  0
  8  9  1  0  0  0  0
  9 11  1  0  0  0  0
  9 10  2  0  0  0  0
 11 12  1  0  0  0  0
 11 34  1  0  0  0  0
 11 35  1  0  0  0  0
 12 13  1  0  0  0  0
 12 36  1  0  0  0  0
 12 37  1  0  0  0  0
 13 14  1  0  0  0  0
 13 38  1  0  0  0  0
 13 39  1  0  0  0  0
 14 15  1  0  0  0  0
 14 40  1  0  0  0  0
 14 41  1  0  0  0  0
 15 16  1  0  0  0  0
 15 42  1  0  0  0  0
 15 43  1  0  0  0  0
 16 17  1  0  0  0  0
 16 44  1  0  0  0  0
 16 45  1  0  0  0  0
 17 18  1  0  0  0  0
 17 46  1  0  0  0  0
 17 47  1  0  0  0  0
 18 19  1  0  0  0  0
 18 48  1  0  0  0  0
 18 49  1  0  0  0  0
 19 20  1  0  0  0  0
 19 50  1  0  0  0  0
 19 51  1  0  0  0  0
 20 21  1  0  0  0  0
 20 52  1  0  0  0  0
 20 53  1  0  0  0  0
 21 22  1  0  0  0  0
 21 54  1  0  0  0  0
 21 55  1  0  0  0  0
 22 23  1  0  0  0  0
 23 25  1  0  0  0  0
 23 24  2  0  0  0  0
 25 26  1  0  0  0  0
 25 56  1  1  0  0  0
 26 27  1  0  0  0  0
 26 57  1  0  0  0  0
 26 58  1  0  0  0  0
 27 28  1  0  0  0  0
 27 59  1  0  0  0  0
 27 60  1  0  0  0  0
 28 29  1  0  0  0  0
 28 61  1  0  0  0  0
 28 62  1  0  0  0  0
 29 63  1  0  0  0  0
 29 64  1  0  0  0  0
 30 65  1  0  0  0  0
 30 66  1  0  0  0  0
 30 67  1  0  0  0  0
 31 68  1  0  0  0  0
 31 69  1  0  0  0  0
 31 70  1  0  0  0  0
M  END
$$$$
