SB3
 OpenBabel04041914403D

 68 70  0  0  1  0  0  0  0  0999 V2000
  -24.9780   27.3517    4.2429 C   0  0  0  0  0  0  0  0  0  0  0  0
  -25.7274   28.3346    4.7840 O   0  0  0  0  0  0  0  0  0  0  0  0
  -23.7901   27.4576    4.0148 O   0  0  0  0  0  0  0  0  0  0  0  0
  -25.7612   26.0442    3.9497 C   0  0  2  0  0  0  0  0  0  0  0  0
  -25.3530   25.4077    2.6174 C   0  0  0  0  0  0  0  0  0  0  0  0
  -25.7843   26.2102    1.3871 C   0  0  0  0  0  0  0  0  0  0  0  0
  -27.2946   26.3750    1.4007 C   0  0  0  0  0  0  0  0  0  0  0  0
  -27.6758   26.9776    2.7413 C   0  0  0  0  0  0  0  0  0  0  0  0
  -27.2199   26.2051    3.8736 N   0  0  0  0  0  0  0  0  0  0  0  0
  -27.9596   25.9047    5.0105 C   0  0  0  0  0  0  0  0  0  0  0  0
  -27.4206   25.4316    6.0061 O   0  0  0  0  0  0  0  0  0  0  0  0
  -29.4939   26.0850    5.0681 C   0  0  0  0  0  0  0  0  0  0  0  0
  -30.1825   25.2857    4.4482 O   0  0  0  0  0  0  0  0  0  0  0  0
  -30.1025   27.2040    5.9385 C   0  0  0  0  0  0  0  0  0  0  0  0
  -29.6081   28.5768    5.4895 C   0  0  0  0  0  0  0  0  0  0  0  0
  -30.1088   29.0169    4.1279 C   0  0  0  0  0  0  0  0  0  0  0  0
  -29.7506   27.0450    7.4243 C   0  0  0  0  0  0  0  0  0  0  0  0
  -31.6397   27.1967    5.8234 C   0  0  0  0  0  0  0  0  0  0  0  0
  -25.1223   29.6436    4.9737 C   0  0  2  0  0  0  0  0  0  0  0  0
  -24.5833   29.7142    6.4016 C   0  0  0  0  0  0  0  0  0  0  0  0
  -23.7310   30.9328    6.7410 C   0  0  0  0  0  0  0  0  0  0  0  0
  -22.5831   30.5463    7.6017 C   0  0  0  0  0  0  0  0  0  0  0  0
  -22.6511   30.6367    8.9697 C   0  0  0  0  0  0  0  0  0  0  0  0
  -21.7048   30.0867    9.7591 C   0  0  0  0  0  0  0  0  0  0  0  0
  -20.6252   29.4487    9.1897 C   0  0  0  0  0  0  0  0  0  0  0  0
  -20.4924   29.4139    7.8593 C   0  0  0  0  0  0  0  0  0  0  0  0
  -21.4678   29.9926    7.0624 C   0  0  0  0  0  0  0  0  0  0  0  0
  -26.2217   30.6262    4.6938 C   0  0  0  0  0  0  0  0  0  0  0  0
  -26.4387   31.0672    3.4145 C   0  0  0  0  0  0  0  0  0  0  0  0
  -27.3843   31.9916    3.1032 C   0  0  0  0  0  0  0  0  0  0  0  0
  -28.1678   32.4810    4.1038 C   0  0  0  0  0  0  0  0  0  0  0  0
  -28.0244   32.0508    5.3670 C   0  0  0  0  0  0  0  0  0  0  0  0
  -27.0633   31.1203    5.6630 C   0  0  0  0  0  0  0  0  0  0  0  0
  -25.4838   25.3481    4.7602 H   0  0  0  0  0  0  0  0  0  0  0  0
  -25.8541   24.4352    2.5617 H   0  0  0  0  0  0  0  0  0  0  0  0
  -24.2765   25.2721    2.5894 H   0  0  0  0  0  0  0  0  0  0  0  0
  -25.4717   25.6860    0.4776 H   0  0  0  0  0  0  0  0  0  0  0  0
  -25.3100   27.2000    1.3960 H   0  0  0  0  0  0  0  0  0  0  0  0
  -27.7800   25.3982    1.2699 H   0  0  0  0  0  0  0  0  0  0  0  0
  -27.6162   27.0267    0.5779 H   0  0  0  0  0  0  0  0  0  0  0  0
  -28.7386   27.0687    2.7820 H   0  0  0  0  0  0  0  0  0  0  0  0
  -27.2062   27.9629    2.8271 H   0  0  0  0  0  0  0  0  0  0  0  0
  -28.5169   28.5643    5.4902 H   0  0  0  0  0  0  0  0  0  0  0  0
  -29.9484   29.3120    6.2277 H   0  0  0  0  0  0  0  0  0  0  0  0
  -29.7172   29.9980    3.8730 H   0  0  0  0  0  0  0  0  0  0  0  0
  -31.1958   29.0681    4.0870 H   0  0  0  0  0  0  0  0  0  0  0  0
  -29.8036   28.3300    3.3568 H   0  0  0  0  0  0  0  0  0  0  0  0
  -30.0804   26.0774    7.8172 H   0  0  0  0  0  0  0  0  0  0  0  0
  -30.2386   27.8332    8.0195 H   0  0  0  0  0  0  0  0  0  0  0  0
  -28.6710   27.1361    7.5832 H   0  0  0  0  0  0  0  0  0  0  0  0
  -32.0593   26.2309    6.1156 H   0  0  0  0  0  0  0  0  0  0  0  0
  -31.9664   27.3917    4.7952 H   0  0  0  0  0  0  0  0  0  0  0  0
  -32.0703   27.9762    6.4673 H   0  0  0  0  0  0  0  0  0  0  0  0
  -24.3105   29.8280    4.2522 H   0  0  0  0  0  0  0  0  0  0  0  0
  -24.0154   28.7982    6.5726 H   0  0  0  0  0  0  0  0  0  0  0  0
  -25.4292   29.6918    7.0938 H   0  0  0  0  0  0  0  0  0  0  0  0
  -24.3332   31.6620    7.2886 H   0  0  0  0  0  0  0  0  0  0  0  0
  -23.3375   31.3952    5.8341 H   0  0  0  0  0  0  0  0  0  0  0  0
  -23.5084   31.1208    9.4310 H   0  0  0  0  0  0  0  0  0  0  0  0
  -21.8017   30.1162   10.8397 H   0  0  0  0  0  0  0  0  0  0  0  0
  -19.8715   28.9965    9.8336 H   0  0  0  0  0  0  0  0  0  0  0  0
  -19.6449   28.9172    7.3981 H   0  0  0  0  0  0  0  0  0  0  0  0
  -21.3545   29.9321    5.9821 H   0  0  0  0  0  0  0  0  0  0  0  0
  -25.8004   30.6880    2.6052 H   0  0  0  0  0  0  0  0  0  0  0  0
  -27.5072   32.3399    2.0831 H   0  0  0  0  0  0  0  0  0  0  0  0
  -28.9441   33.2198    3.8564 H   0  0  0  0  0  0  0  0  0  0  0  0
  -28.6645   32.4428    6.1569 H   0  0  0  0  0  0  0  0  0  0  0  0
  -26.9744   30.7969    6.6955 H   0  0  0  0  0  0  0  0  0  0  0  0
  1  4  1  0  0  0  0
  1  3  2  0  0  0  0
  1  2  1  0  0  0  0
  2 19  1  0  0  0  0
  4  9  1  0  0  0  0
  4  5  1  0  0  0  0
  4 34  1  1  0  0  0
  5  6  1  0  0  0  0
  5 35  1  0  0  0  0
  5 36  1  0  0  0  0
  6  7  1  0  0  0  0
  6 37  1  0  0  0  0
  6 38  1  0  0  0  0
  7  8  1  0  0  0  0
  7 39  1  0  0  0  0
  7 40  1  0  0  0  0
  8  9  1  0  0  0  0
  8 41  1  0  0  0  0
  8 42  1  0  0  0  0
  9 10  1  0  0  0  0
 10 12  1  0  0  0  0
 10 11  2  0  0  0  0
 12 14  1  0  0  0  0
 12 13  2  0  0  0  0
 14 18  1  0  0  0  0
 14 17  1  0  0  0  0
 14 15  1  0  0  0  0
 15 16  1  0  0  0  0
 15 43  1  0  0  0  0
 15 44  1  0  0  0  0
 16 45  1  0  0  0  0
 16 46  1  0  0  0  0
 16 47  1  0  0  0  0
 17 48  1  0  0  0  0
 17 49  1  0  0  0  0
 17 50  1  0  0  0  0
 18 51  1  0  0  0  0
 18 52  1  0  0  0  0
 18 53  1  0  0  0  0
 19 28  1  0  0  0  0
 19 20  1  0  0  0  0
 19 54  1  6  0  0  0
 20 21  1  0  0  0  0
 20 55  1  0  0  0  0
 20 56  1  0  0  0  0
 21 22  1  0  0  0  0
 21 57  1  0  0  0  0
 21 58  1  0  0  0  0
 22 27  2  0  0  0  0
 22 23  1  0  0  0  0
 23 24  2  0  0  0  0
 23 59  1  0  0  0  0
 24 25  1  0  0  0  0
 24 60  1  0  0  0  0
 25 26  2  0  0  0  0
 25 61  1  0  0  0  0
 26 27  1  0  0  0  0
 26 62  1  0  0  0  0
 27 63  1  0  0  0  0
 28 33  2  0  0  0  0
 28 29  1  0  0  0  0
 29 30  2  0  0  0  0
 29 64  1  0  0  0  0
 30 31  1  0  0  0  0
 30 65  1  0  0  0  0
 31 32  2  0  0  0  0
 31 66  1  0  0  0  0
 32 33  1  0  0  0  0
 32 67  1  0  0  0  0
 33 68  1  0  0  0  0
M  END
$$$$
