SBR
 OpenBabel04041915043D

 47 49  0  0  1  0  0  0  0  0999 V2000
   -1.4037    7.5602   12.4631 C   0  0  0  0  0  0  0  0  0  0  0  0
   -2.4434    6.6931   13.1910 C   0  0  1  0  0  0  0  0  0  0  0  0
   -2.8991    5.5653   12.2375 C   0  0  0  0  0  0  0  0  0  0  0  0
   -3.2159    4.3271   12.9219 N   0  0  0  0  0  0  0  0  0  0  0  0
   -4.4313    4.2480   13.5701 C   0  0  0  0  0  0  0  0  0  0  0  0
   -5.2718    5.1407   13.4770 O   0  0  0  0  0  0  0  0  0  0  0  0
   -4.7257    3.0636   14.4093 C   0  0  0  0  0  0  0  0  0  0  0  0
   -3.8218    2.0144   14.6509 C   0  0  0  0  0  0  0  0  0  0  0  0
   -4.2200    0.9268   15.4269 C   0  0  0  0  0  0  0  0  0  0  0  0
   -5.5224    0.8993   15.9661 C   0  0  0  0  0  0  0  0  0  0  0  0
   -6.4101    1.9415   15.7308 C   0  0  0  0  0  0  0  0  0  0  0  0
   -6.0094    3.0207   14.9660 C   0  0  0  0  0  0  0  0  0  0  0  0
   -6.0934   -0.4331   16.9725 S   0  0  0  0  0  0  0  0  0  0  0  0
   -5.3829   -0.3514   18.2239 O   0  0  0  0  0  0  0  0  0  0  0  0
   -7.5482   -0.4405   16.9292 O   0  0  0  0  0  0  0  0  0  0  0  0
   -5.5749   -1.7844   16.2105 N   0  0  0  0  0  0  0  0  0  0  0  0
   -0.9247    8.6914   13.2546 N   0  3  2  0  0  0  0  0  0  0  0  0
    0.0477    8.6147   14.2208 C   0  0  0  0  0  0  0  0  0  0  0  0
    0.1845    9.8598   14.7913 C   0  0  0  0  0  0  0  0  0  0  0  0
   -1.3876    9.9848   13.1504 C   0  0  1  0  0  0  0  0  0  0  0  0
   -2.3469   10.5544   12.3115 C   0  0  0  0  0  0  0  0  0  0  0  0
   -2.6047   11.9221   12.4474 C   0  0  0  0  0  0  0  0  0  0  0  0
   -1.9292   12.6881   13.4019 C   0  0  0  0  0  0  0  0  0  0  0  0
   -0.9795   12.1041   14.2434 C   0  0  0  0  0  0  0  0  0  0  0  0
   -0.7013   10.7316   14.1074 C   0  0  1  0  0  0  0  0  0  0  0  0
   -1.8682    6.1255   14.4968 C   0  0  0  0  0  0  0  0  0  0  0  0
   -0.5260    6.9704   12.1901 H   0  0  0  0  0  0  0  0  0  0  0  0
   -1.8207    7.9536   11.5313 H   0  0  0  0  0  0  0  0  0  0  0  0
   -3.3140    7.3086   13.4456 H   0  0  0  0  0  0  0  0  0  0  0  0
   -2.1470    5.3308   11.4803 H   0  0  0  0  0  0  0  0  0  0  0  0
   -3.8020    5.8880   11.7038 H   0  0  0  0  0  0  0  0  0  0  0  0
   -2.4579    3.6986   13.1421 H   0  0  0  0  0  0  0  0  0  0  0  0
   -2.8143    2.0324   14.2474 H   0  0  0  0  0  0  0  0  0  0  0  0
   -3.5096    0.1174   15.6209 H   0  0  0  0  0  0  0  0  0  0  0  0
   -7.4100    1.9208   16.1545 H   0  0  0  0  0  0  0  0  0  0  0  0
   -6.7205    3.8324   14.8004 H   0  0  0  0  0  0  0  0  0  0  0  0
   -5.9443   -2.6517   16.5923 H   0  0  0  0  0  0  0  0  0  0  0  0
   -5.1891   -1.7456   15.2721 H   0  0  0  0  0  0  0  0  0  0  0  0
    0.5293    7.6758   14.4691 H   0  0  0  0  0  0  0  0  0  0  0  0
    0.8405   10.1215   15.6130 H   0  0  0  0  0  0  0  0  0  0  0  0
   -2.8906    9.9741   11.5751 H   0  0  0  0  0  0  0  0  0  0  0  0
   -3.3399   12.3955   11.8094 H   0  0  0  0  0  0  0  0  0  0  0  0
   -2.1456   13.7492   13.4998 H   0  0  0  0  0  0  0  0  0  0  0  0
   -0.4589   12.6957   14.9905 H   0  0  0  0  0  0  0  0  0  0  0  0
   -1.5853    6.9155   15.1926 H   0  0  0  0  0  0  0  0  0  0  0  0
   -0.9923    5.5052   14.2813 H   0  0  0  0  0  0  0  0  0  0  0  0
   -2.6002    5.5242   15.0394 H   0  0  0  0  0  0  0  0  0  0  0  0
  1  2  1  0  0  0  0
  1 27  1  0  0  0  0
  1 28  1  0  0  0  0
  2 26  1  0  0  0  0
  2  3  1  0  0  0  0
  2 29  1  1  0  0  0
  3  4  1  0  0  0  0
  3 30  1  0  0  0  0
  3 31  1  0  0  0  0
  4  5  1  0  0  0  0
  4 32  1  0  0  0  0
  5  7  1  0  0  0  0
  5  6  2  0  0  0  0
  7 12  2  0  0  0  0
  7  8  1  0  0  0  0
  8  9  2  0  0  0  0
  8 33  1  0  0  0  0
  9 10  1  0  0  0  0
  9 34  1  0  0  0  0
 10 13  1  0  0  0  0
 10 11  2  0  0  0  0
 11 12  1  0  0  0  0
 11 35  1  0  0  0  0
 12 36  1  0  0  0  0
 13 16  1  0  0  0  0
 13 15  2  0  0  0  0
 13 14  2  0  0  0  0
 16 37  1  0  0  0  0
 16 38  1  0  0  0  0
 17  1  1  1  0  0  0
 17 20  1  0  0  0  0
 17 18  1  0  0  0  0
 18 19  1  0  0  0  0
 18 39  1  0  0  0  0
 19 40  1  0  0  0  0
 20 25  1  0  0  0  0
 20 21  1  1  0  0  0
 21 22  1  0  0  0  0
 21 41  1  0  0  0  0
 22 23  1  0  0  0  0
 22 42  1  0  0  0  0
 23 24  1  0  0  0  0
 23 43  1  0  0  0  0
 24 25  1  0  0  0  0
 24 44  1  0  0  0  0
 25 19  1  1  0  0  0
 26 45  1  0  0  0  0
 26 46  1  0  0  0  0
 26 47  1  0  0  0  0
M  CHG  1  17   1
M  END
$$$$
