SBS
 OpenBabel04041915043D

 47 49  0  0  1  0  0  0  0  0999 V2000
   -0.6552    8.1078   12.6961 C   0  0  0  0  0  0  0  0  0  0  0  0
   -1.3037    6.9673   13.5103 C   0  0  2  0  0  0  0  0  0  0  0  0
   -2.6247    6.4769   12.8939 C   0  0  0  0  0  0  0  0  0  0  0  0
   -3.0692    5.2382   13.5311 N   0  0  0  0  0  0  0  0  0  0  0  0
   -4.3439    5.1494   14.0667 C   0  0  0  0  0  0  0  0  0  0  0  0
   -5.1563    6.0614   13.9857 O   0  0  0  0  0  0  0  0  0  0  0  0
   -4.7460    3.8874   14.7744 C   0  0  0  0  0  0  0  0  0  0  0  0
   -3.8933    2.7887   14.9532 C   0  0  0  0  0  0  0  0  0  0  0  0
   -4.3129    1.6433   15.6299 C   0  0  0  0  0  0  0  0  0  0  0  0
   -5.6117    1.5931   16.1480 C   0  0  0  0  0  0  0  0  0  0  0  0
   -6.4776    2.6752   15.9851 C   0  0  0  0  0  0  0  0  0  0  0  0
   -6.0479    3.8156   15.3082 C   0  0  0  0  0  0  0  0  0  0  0  0
   -6.1788    0.2291   17.1247 S   0  0  0  0  0  0  0  0  0  0  0  0
   -5.4314    0.2422   18.3567 O   0  0  0  0  0  0  0  0  0  0  0  0
   -7.6301    0.2237   17.0920 O   0  0  0  0  0  0  0  0  0  0  0  0
   -5.7079   -1.1391   16.3007 N   0  0  0  0  0  0  0  0  0  0  0  0
    0.6428    8.5202   13.2428 N   0  3  2  0  0  0  0  0  0  0  0  0
    1.8419    7.9003   12.9731 C   0  0  0  0  0  0  0  0  0  0  0  0
    2.8189    8.5037   13.7343 C   0  0  0  0  0  0  0  0  0  0  0  0
    0.8463    9.5359   14.1665 C   0  0  1  0  0  0  0  0  0  0  0  0
   -0.0433   10.4394   14.7716 C   0  0  0  0  0  0  0  0  0  0  0  0
    0.4645   11.3421   15.7183 C   0  0  0  0  0  0  0  0  0  0  0  0
    1.8100   11.3526   16.0515 C   0  0  0  0  0  0  0  0  0  0  0  0
    2.6937   10.4509   15.4488 C   0  0  0  0  0  0  0  0  0  0  0  0
    2.2054    9.5300   14.4958 C   0  0  1  0  0  0  0  0  0  0  0  0
   -1.5949    7.4172   14.9463 C   0  0  0  0  0  0  0  0  0  0  0  0
   -0.4850    7.7995   11.6552 H   0  0  0  0  0  0  0  0  0  0  0  0
   -1.3038    8.9910   12.6567 H   0  0  0  0  0  0  0  0  0  0  0  0
   -0.5998    6.1255   13.5396 H   0  0  0  0  0  0  0  0  0  0  0  0
   -2.5258    6.2693   11.8244 H   0  0  0  0  0  0  0  0  0  0  0  0
   -3.3955    7.2468   13.0099 H   0  0  0  0  0  0  0  0  0  0  0  0
   -2.4054    4.4913   13.6075 H   0  0  0  0  0  0  0  0  0  0  0  0
   -2.8712    2.8151   14.5688 H   0  0  0  0  0  0  0  0  0  0  0  0
   -3.6155    0.8208   15.7706 H   0  0  0  0  0  0  0  0  0  0  0  0
   -7.4778    2.6420   16.4116 H   0  0  0  0  0  0  0  0  0  0  0  0
   -6.7384    4.6527   15.2096 H   0  0  0  0  0  0  0  0  0  0  0  0
   -6.1331   -1.9978   16.6541 H   0  0  0  0  0  0  0  0  0  0  0  0
   -5.3852   -1.0961   15.3385 H   0  0  0  0  0  0  0  0  0  0  0  0
    1.9133    7.0747   12.2770 H   0  0  0  0  0  0  0  0  0  0  0  0
    3.8698    8.2438   13.7589 H   0  0  0  0  0  0  0  0  0  0  0  0
   -1.1034   10.4366   14.5387 H   0  0  0  0  0  0  0  0  0  0  0  0
   -0.2145   12.0407   16.1995 H   0  0  0  0  0  0  0  0  0  0  0  0
    2.1844   12.0651   16.7861 H   0  0  0  0  0  0  0  0  0  0  0  0
    3.7457   10.4582   15.7132 H   0  0  0  0  0  0  0  0  0  0  0  0
   -0.6872    7.7409   15.4563 H   0  0  0  0  0  0  0  0  0  0  0  0
   -2.0132    6.6033   15.5428 H   0  0  0  0  0  0  0  0  0  0  0  0
   -2.3144    8.2448   14.9514 H   0  0  0  0  0  0  0  0  0  0  0  0
  1  2  1  0  0  0  0
  1 27  1  0  0  0  0
  1 28  1  0  0  0  0
  2 26  1  0  0  0  0
  2  3  1  0  0  0  0
  2 29  1  1  0  0  0
  3  4  1  0  0  0  0
  3 30  1  0  0  0  0
  3 31  1  0  0  0  0
  4  5  1  0  0  0  0
  4 32  1  0  0  0  0
  5  7  1  0  0  0  0
  5  6  2  0  0  0  0
  7 12  2  0  0  0  0
  7  8  1  0  0  0  0
  8  9  2  0  0  0  0
  8 33  1  0  0  0  0
  9 10  1  0  0  0  0
  9 34  1  0  0  0  0
 10 13  1  0  0  0  0
 10 11  2  0  0  0  0
 11 12  1  0  0  0  0
 11 35  1  0  0  0  0
 12 36  1  0  0  0  0
 13 16  1  0  0  0  0
 13 15  2  0  0  0  0
 13 14  2  0  0  0  0
 16 37  1  0  0  0  0
 16 38  1  0  0  0  0
 17  1  1  1  0  0  0
 17 20  1  0  0  0  0
 17 18  1  0  0  0  0
 18 19  1  0  0  0  0
 18 39  1  0  0  0  0
 19 40  1  0  0  0  0
 20 25  1  0  0  0  0
 20 21  1  1  0  0  0
 21 22  1  0  0  0  0
 21 41  1  0  0  0  0
 22 23  1  0  0  0  0
 22 42  1  0  0  0  0
 23 24  1  0  0  0  0
 23 43  1  0  0  0  0
 24 25  1  0  0  0  0
 24 44  1  0  0  0  0
 25 19  1  1  0  0  0
 26 45  1  0  0  0  0
 26 46  1  0  0  0  0
 26 47  1  0  0  0  0
M  CHG  1  17   1
M  END
$$$$
