SBX
 OpenBabel04041914403D

 74 76  0  0  1  0  0  0  0  0999 V2000
  -24.9243   27.2048   42.8111 C   0  0  0  0  0  0  0  0  0  0  0  0
  -25.5870   28.2840   43.2963 O   0  0  0  0  0  0  0  0  0  0  0  0
  -23.7347   27.1617   42.5376 O   0  0  0  0  0  0  0  0  0  0  0  0
  -25.8590   25.9841   42.6153 C   0  0  2  0  0  0  0  0  0  0  0  0
  -25.4721   25.2609   41.3238 C   0  0  0  0  0  0  0  0  0  0  0  0
  -25.9354   26.0266   40.0892 C   0  0  0  0  0  0  0  0  0  0  0  0
  -27.4477   26.2045   40.1933 C   0  0  0  0  0  0  0  0  0  0  0  0
  -27.7992   26.9784   41.4518 C   0  0  0  0  0  0  0  0  0  0  0  0
  -27.3090   26.2528   42.5914 N   0  0  0  0  0  0  0  0  0  0  0  0
  -28.0587   25.8277   43.6473 C   0  0  0  0  0  0  0  0  0  0  0  0
  -27.5117   25.2914   44.6301 O   0  0  0  0  0  0  0  0  0  0  0  0
  -29.5720   25.8106   43.6433 C   0  0  0  0  0  0  0  0  0  0  0  0
  -30.1386   24.8187   43.2081 O   0  0  0  0  0  0  0  0  0  0  0  0
  -30.3692   26.9103   44.3950 C   0  0  0  0  0  0  0  0  0  0  0  0
  -29.5232   27.9941   45.0489 C   0  0  0  0  0  0  0  0  0  0  0  0
  -28.8998   27.5977   46.3808 C   0  0  0  0  0  0  0  0  0  0  0  0
  -31.2833   26.2770   45.4316 C   0  0  0  0  0  0  0  0  0  0  0  0
  -31.3664   27.5579   43.4338 C   0  0  0  0  0  0  0  0  0  0  0  0
  -24.8960   29.5528   43.3396 C   0  0  2  0  0  0  0  0  0  0  0  0
  -24.3691   29.8544   44.7546 C   0  0  0  0  0  0  0  0  0  0  0  0
  -23.0189   30.5658   44.7159 C   0  0  0  0  0  0  0  0  0  0  0  0
  -22.0803   30.1875   45.7946 C   0  0  0  0  0  0  0  0  0  0  0  0
  -22.3194   30.4598   47.1139 C   0  0  0  0  0  0  0  0  0  0  0  0
  -21.5312   30.0219   48.1020 C   0  0  0  0  0  0  0  0  0  0  0  0
  -20.4178   29.3186   47.7856 C   0  0  0  0  0  0  0  0  0  0  0  0
  -20.0962   29.0931   46.5021 C   0  0  0  0  0  0  0  0  0  0  0  0
  -20.9121   29.5402   45.4957 C   0  0  0  0  0  0  0  0  0  0  0  0
  -25.8995   30.6477   42.9852 C   0  0  0  0  0  0  0  0  0  0  0  0
  -26.1671   30.8068   41.4938 C   0  0  0  0  0  0  0  0  0  0  0  0
  -26.9355   32.1114   41.3385 C   0  0  0  0  0  0  0  0  0  0  0  0
  -28.2417   32.0650   42.1247 C   0  0  0  0  0  0  0  0  0  0  0  0
  -28.0205   31.7997   43.6065 C   0  0  0  0  0  0  0  0  0  0  0  0
  -27.2162   30.5230   43.7611 C   0  0  0  0  0  0  0  0  0  0  0  0
  -25.6220   25.3266   43.4568 H   0  0  0  0  0  0  0  0  0  0  0  0
  -25.9662   24.2834   41.3242 H   0  0  0  0  0  0  0  0  0  0  0  0
  -24.3915   25.1150   41.2819 H   0  0  0  0  0  0  0  0  0  0  0  0
  -25.6784   25.4649   39.1818 H   0  0  0  0  0  0  0  0  0  0  0  0
  -25.4342   27.0049   40.0323 H   0  0  0  0  0  0  0  0  0  0  0  0
  -27.9082   25.2121   40.2603 H   0  0  0  0  0  0  0  0  0  0  0  0
  -27.8251   26.7248   39.3180 H   0  0  0  0  0  0  0  0  0  0  0  0
  -28.8692   27.1381   41.5302 H   0  0  0  0  0  0  0  0  0  0  0  0
  -27.3032   27.9554   41.4484 H   0  0  0  0  0  0  0  0  0  0  0  0
  -30.1569   28.8740   45.2135 H   0  0  0  0  0  0  0  0  0  0  0  0
  -28.7347   28.2644   44.3548 H   0  0  0  0  0  0  0  0  0  0  0  0
  -28.3105   28.4233   46.7859 H   0  0  0  0  0  0  0  0  0  0  0  0
  -28.2453   26.7337   46.2686 H   0  0  0  0  0  0  0  0  0  0  0  0
  -29.6659   27.3460   47.1216 H   0  0  0  0  0  0  0  0  0  0  0  0
  -31.9062   25.5064   44.9703 H   0  0  0  0  0  0  0  0  0  0  0  0
  -31.9363   27.0492   45.8596 H   0  0  0  0  0  0  0  0  0  0  0  0
  -30.6910   25.8221   46.2197 H   0  0  0  0  0  0  0  0  0  0  0  0
  -31.9983   26.7911   42.9652 H   0  0  0  0  0  0  0  0  0  0  0  0
  -30.8495   28.1274   42.6670 H   0  0  0  0  0  0  0  0  0  0  0  0
  -32.0289   28.2358   43.9977 H   0  0  0  0  0  0  0  0  0  0  0  0
  -24.0737   29.5810   42.6177 H   0  0  0  0  0  0  0  0  0  0  0  0
  -24.3151   28.9259   45.3162 H   0  0  0  0  0  0  0  0  0  0  0  0
  -25.0656   30.5320   45.2734 H   0  0  0  0  0  0  0  0  0  0  0  0
  -23.1751   31.6469   44.7794 H   0  0  0  0  0  0  0  0  0  0  0  0
  -22.5243   30.3281   43.7731 H   0  0  0  0  0  0  0  0  0  0  0  0
  -23.2392   31.0290   47.3611 H   0  0  0  0  0  0  0  0  0  0  0  0
  -21.7880   30.2107   49.1412 H   0  0  0  0  0  0  0  0  0  0  0  0
  -19.7710   28.9479   48.5817 H   0  0  0  0  0  0  0  0  0  0  0  0
  -19.1975   28.5329   46.2477 H   0  0  0  0  0  0  0  0  0  0  0  0
  -20.6456   29.3400   44.4694 H   0  0  0  0  0  0  0  0  0  0  0  0
  -25.4456   31.5940   43.2941 H   0  0  0  0  0  0  0  0  0  0  0  0
  -26.7594   29.9803   41.0898 H   0  0  0  0  0  0  0  0  0  0  0  0
  -25.2242   30.8665   40.9375 H   0  0  0  0  0  0  0  0  0  0  0  0
  -27.1443   32.2897   40.2835 H   0  0  0  0  0  0  0  0  0  0  0  0
  -26.3118   32.9329   41.7198 H   0  0  0  0  0  0  0  0  0  0  0  0
  -28.8631   31.2573   41.7216 H   0  0  0  0  0  0  0  0  0  0  0  0
  -28.7636   33.0148   42.0031 H   0  0  0  0  0  0  0  0  0  0  0  0
  -28.9845   31.7054   44.1187 H   0  0  0  0  0  0  0  0  0  0  0  0
  -27.4753   32.6407   44.0586 H   0  0  0  0  0  0  0  0  0  0  0  0
  -27.0140   30.3454   44.8186 H   0  0  0  0  0  0  0  0  0  0  0  0
  -27.7974   29.6819   43.3749 H   0  0  0  0  0  0  0  0  0  0  0  0
  1  4  1  0  0  0  0
  1  3  2  0  0  0  0
  1  2  1  0  0  0  0
  2 19  1  0  0  0  0
  4  9  1  0  0  0  0
  4  5  1  0  0  0  0
  4 34  1  1  0  0  0
  5  6  1  0  0  0  0
  5 35  1  0  0  0  0
  5 36  1  0  0  0  0
  6  7  1  0  0  0  0
  6 37  1  0  0  0  0
  6 38  1  0  0  0  0
  7  8  1  0  0  0  0
  7 39  1  0  0  0  0
  7 40  1  0  0  0  0
  8  9  1  0  0  0  0
  8 41  1  0  0  0  0
  8 42  1  0  0  0  0
  9 10  1  0  0  0  0
 10 12  1  0  0  0  0
 10 11  2  0  0  0  0
 12 14  1  0  0  0  0
 12 13  2  0  0  0  0
 14 18  1  0  0  0  0
 14 17  1  0  0  0  0
 14 15  1  0  0  0  0
 15 16  1  0  0  0  0
 15 43  1  0  0  0  0
 15 44  1  0  0  0  0
 16 45  1  0  0  0  0
 16 46  1  0  0  0  0
 16 47  1  0  0  0  0
 17 48  1  0  0  0  0
 17 49  1  0  0  0  0
 17 50  1  0  0  0  0
 18 51  1  0  0  0  0
 18 52  1  0  0  0  0
 18 53  1  0  0  0  0
 19 28  1  0  0  0  0
 19 20  1  0  0  0  0
 19 54  1  6  0  0  0
 20 21  1  0  0  0  0
 20 55  1  0  0  0  0
 20 56  1  0  0  0  0
 21 22  1  0  0  0  0
 21 57  1  0  0  0  0
 21 58  1  0  0  0  0
 22 27  2  0  0  0  0
 22 23  1  0  0  0  0
 23 24  2  0  0  0  0
 23 59  1  0  0  0  0
 24 25  1  0  0  0  0
 24 60  1  0  0  0  0
 25 26  2  0  0  0  0
 25 61  1  0  0  0  0
 26 27  1  0  0  0  0
 26 62  1  0  0  0  0
 27 63  1  0  0  0  0
 28 33  1  0  0  0  0
 28 29  1  0  0  0  0
 28 64  1  0  0  0  0
 29 30  1  0  0  0  0
 29 65  1  0  0  0  0
 29 66  1  0  0  0  0
 30 31  1  0  0  0  0
 30 67  1  0  0  0  0
 30 68  1  0  0  0  0
 31 32  1  0  0  0  0
 31 69  1  0  0  0  0
 31 70  1  0  0  0  0
 32 33  1  0  0  0  0
 32 71  1  0  0  0  0
 32 72  1  0  0  0  0
 33 73  1  0  0  0  0
 33 74  1  0  0  0  0
M  END
$$$$
