SC1
 OpenBabel04041917363D

 35 35  0  0  1  0  0  0  0  0999 V2000
   56.2614   12.1401   27.9450 C   0  0  0  0  0  0  0  0  0  0  0  0
   55.1893   11.3777   28.2453 C   0  0  0  0  0  0  0  0  0  0  0  0
   55.2824   10.0623   29.0090 C   0  0  2  0  0  0  0  0  0  0  0  0
   56.6675   10.0252   29.8065 C   0  0  2  0  0  0  0  0  0  0  0  0
   57.8646   10.2752   28.8284 C   0  0  1  0  0  0  0  0  0  0  0  0
   57.6938   11.7447   28.3242 C   0  0  0  0  0  0  0  0  0  0  0  0
   56.0942   13.4197   27.0964 C   0  0  0  0  0  0  0  0  0  0  0  0
   55.1343    8.9411   28.1105 O   0  0  0  0  0  0  0  0  0  0  0  0
   56.7097    8.7809   30.5484 O   0  0  0  0  0  0  0  0  0  0  0  0
   59.1068   10.1282   29.5496 O   0  0  0  0  0  0  0  0  0  0  0  0
   55.1407   13.5335   26.3276 O   0  0  0  0  0  0  0  0  0  0  0  0
   56.8827   14.3852   27.4356 O   0  0  0  0  0  0  0  0  0  0  0  0
   53.7872    8.0273   27.8566 P   0  0  0  0  0  0  0  0  0  0  0  0
   52.7121    8.9339   27.2585 O   0  0  0  0  0  0  0  0  0  0  0  0
   53.3544    7.4760   29.2202 O   0  0  0  0  0  0  0  0  0  0  0  0
   54.1888    6.9223   26.8740 O   0  0  0  0  0  0  0  0  0  0  0  0
   60.0620    9.0912   29.0780 C   0  0  2  0  0  0  0  0  0  0  0  0
   59.5225    7.6265   29.0434 C   0  0  0  0  0  0  0  0  0  0  0  0
   61.3594    9.1923   29.9965 C   0  0  0  0  0  0  0  0  0  0  0  0
   61.7722   10.3088   30.4301 O   0  0  0  0  0  0  0  0  0  0  0  0
   61.7520    8.0649   30.5220 O   0  0  0  0  0  0  0  0  0  0  0  0
   60.5982    9.3785   27.2103 P   0  0  0  0  0  0  0  0  0  0  0  0
   61.8947    8.5686   27.0128 O   0  0  0  0  0  0  0  0  0  0  0  0
   60.7532   10.8791   27.0189 O   0  0  0  0  0  0  0  0  0  0  0  0
   59.4480    8.7892   26.3878 O   0  0  0  0  0  0  0  0  0  0  0  0
   54.1870   11.6729   27.9259 H   0  0  0  0  0  0  0  0  0  0  0  0
   54.4995   10.0421   29.7743 H   0  0  0  0  0  0  0  0  0  0  0  0
   56.7308   10.8151   30.5995 H   0  0  0  0  0  0  0  0  0  0  0  0
   57.7978    9.5696   28.0073 H   0  0  0  0  0  0  0  0  0  0  0  0
   58.0195   12.4441   29.1139 H   0  0  0  0  0  0  0  0  0  0  0  0
   58.3594   11.9141   27.4707 H   0  0  0  0  0  0  0  0  0  0  0  0
   57.5876    8.6958   30.9450 H   0  0  0  0  0  0  0  0  0  0  0  0
   59.2096    7.2463   30.0193 H   0  0  0  0  0  0  0  0  0  0  0  0
   60.2872    6.9319   28.6435 H   0  0  0  0  0  0  0  0  0  0  0  0
   58.6650    7.5490   28.3656 H   0  0  0  0  0  0  0  0  0  0  0  0
  1  2  2  0  0  0  0
  1  6  1  0  0  0  0
  1  7  1  0  0  0  0
  2  3  1  0  0  0  0
  2 26  1  0  0  0  0
  3  4  1  0  0  0  0
  3  8  1  0  0  0  0
  3 27  1  1  0  0  0
  4  5  1  0  0  0  0
  4  9  1  0  0  0  0
  4 28  1  1  0  0  0
  5  6  1  0  0  0  0
  5 10  1  0  0  0  0
  5 29  1  6  0  0  0
  6 30  1  0  0  0  0
  6 31  1  0  0  0  0
  7 11  2  0  0  0  0
  7 12  1  0  0  0  0
  8 13  1  0  0  0  0
  9 32  1  0  0  0  0
 13 14  2  0  0  0  0
 13 15  1  0  0  0  0
 13 16  1  0  0  0  0
 17 10  1  1  0  0  0
 17 18  1  0  0  0  0
 17 19  1  0  0  0  0
 17 22  1  0  0  0  0
 18 33  1  0  0  0  0
 18 34  1  0  0  0  0
 18 35  1  0  0  0  0
 19 20  2  0  0  0  0
 19 21  1  0  0  0  0
 22 23  2  0  0  0  0
 22 24  1  0  0  0  0
 22 25  1  0  0  0  0
M  END
$$$$
