SLE
 OpenBabel04041913583D

 47 47  0  0  1  0  0  0  0  0999 V2000
   -2.8524   23.6690   47.6941 C   0  0  0  0  0  0  0  0  0  0  0  0
   -2.0602   24.3127   48.3603 O   0  0  0  0  0  0  0  0  0  0  0  0
   -2.9615   22.1545   47.7744 C   0  0  1  0  0  0  0  0  0  0  0  0
   -1.5605   21.5408   47.8825 C   0  0  0  0  0  0  0  0  0  0  0  0
   -0.7318   21.4556   46.2607 S   0  0  0  0  0  0  0  0  0  0  0  0
   -3.7885   21.7729   49.0220 C   0  0  0  0  0  0  0  0  0  0  0  0
   -5.1260   22.5186   49.2166 C   0  0  0  0  0  0  0  0  0  0  0  0
   -5.7054   22.1573   50.5848 C   0  0  0  0  0  0  0  0  0  0  0  0
   -6.1455   22.1939   48.1252 C   0  0  0  0  0  0  0  0  0  0  0  0
   -3.8000   24.2235   46.8924 N   0  0  0  0  0  0  0  0  0  0  0  0
   -3.9119   25.6420   46.5288 C   0  0  2  0  0  0  0  0  0  0  0  0
   -5.1702   25.9214   45.6426 C   0  0  0  0  0  0  0  0  0  0  0  0
   -5.5558   27.1223   45.5937 O   0  0  0  0  0  0  0  0  0  0  0  0
   -2.6421   26.1707   45.8331 C   0  0  0  0  0  0  0  0  0  0  0  0
   -2.1164   25.4538   44.5952 C   0  0  0  0  0  0  0  0  0  0  0  0
   -2.7147   24.3121   44.0390 C   0  0  0  0  0  0  0  0  0  0  0  0
   -0.9540   25.9270   43.9729 C   0  0  0  0  0  0  0  0  0  0  0  0
   -2.1963   23.6629   42.9167 C   0  0  0  0  0  0  0  0  0  0  0  0
   -0.4320   25.2854   42.8398 C   0  0  0  0  0  0  0  0  0  0  0  0
   -1.0582   24.1594   42.3024 C   0  0  0  0  0  0  0  0  0  0  0  0
   -0.4106   23.5010   41.2941 O   0  0  0  0  0  0  0  0  0  0  0  0
   -5.6970   24.8786   45.1345 O   0  0  0  0  0  0  0  0  0  0  0  0
   -1.1747   23.3371   40.1023 C   0  0  0  0  0  0  0  0  0  0  0  0
   -3.4731   21.7647   46.8884 H   0  0  0  0  0  0  0  0  0  0  0  0
   -1.6211   20.5134   48.2574 H   0  0  0  0  0  0  0  0  0  0  0  0
   -0.9169   22.0967   48.5728 H   0  0  0  0  0  0  0  0  0  0  0  0
    0.4295   20.9535   46.6994 H   0  0  0  0  0  0  0  0  0  0  0  0
   -3.1701   21.9407   49.9145 H   0  0  0  0  0  0  0  0  0  0  0  0
   -3.9866   20.6935   48.9839 H   0  0  0  0  0  0  0  0  0  0  0  0
   -4.9492   23.6001   49.2281 H   0  0  0  0  0  0  0  0  0  0  0  0
   -6.6441   22.6908   50.7633 H   0  0  0  0  0  0  0  0  0  0  0  0
   -5.0070   22.4339   51.3822 H   0  0  0  0  0  0  0  0  0  0  0  0
   -5.8982   21.0827   50.6581 H   0  0  0  0  0  0  0  0  0  0  0  0
   -5.7803   22.4363   47.1226 H   0  0  0  0  0  0  0  0  0  0  0  0
   -7.0625   22.7772   48.2749 H   0  0  0  0  0  0  0  0  0  0  0  0
   -6.4065   21.1375   48.1243 H   0  0  0  0  0  0  0  0  0  0  0  0
   -4.4489   23.6592   46.3469 H   0  0  0  0  0  0  0  0  0  0  0  0
   -4.0592   26.1833   47.4721 H   0  0  0  0  0  0  0  0  0  0  0  0
   -1.8325   26.1607   46.5793 H   0  0  0  0  0  0  0  0  0  0  0  0
   -2.7969   27.2280   45.5763 H   0  0  0  0  0  0  0  0  0  0  0  0
   -3.6022   23.8732   44.4769 H   0  0  0  0  0  0  0  0  0  0  0  0
   -0.4342   26.7918   44.3799 H   0  0  0  0  0  0  0  0  0  0  0  0
   -2.6811   22.7518   42.5827 H   0  0  0  0  0  0  0  0  0  0  0  0
    0.4769   25.6579   42.3822 H   0  0  0  0  0  0  0  0  0  0  0  0
   -0.5622   22.7391   39.4176 H   0  0  0  0  0  0  0  0  0  0  0  0
   -1.3549   24.3028   39.6190 H   0  0  0  0  0  0  0  0  0  0  0  0
   -2.1148   22.7966   40.2536 H   0  0  0  0  0  0  0  0  0  0  0  0
  1  3  1  0  0  0  0
  1  2  2  0  0  0  0
  1 10  1  0  0  0  0
  3  6  1  0  0  0  0
  3  4  1  0  0  0  0
  3 24  1  6  0  0  0
  4  5  1  0  0  0  0
  4 25  1  0  0  0  0
  4 26  1  0  0  0  0
  5 27  1  0  0  0  0
  6  7  1  0  0  0  0
  6 28  1  0  0  0  0
  6 29  1  0  0  0  0
  7  9  1  0  0  0  0
  7  8  1  0  0  0  0
  7 30  1  0  0  0  0
  8 31  1  0  0  0  0
  8 32  1  0  0  0  0
  8 33  1  0  0  0  0
  9 34  1  0  0  0  0
  9 35  1  0  0  0  0
  9 36  1  0  0  0  0
 10 11  1  0  0  0  0
 10 37  1  0  0  0  0
 11 12  1  0  0  0  0
 11 14  1  0  0  0  0
 11 38  1  1  0  0  0
 12 22  2  0  0  0  0
 12 13  1  0  0  0  0
 14 15  1  0  0  0  0
 14 39  1  0  0  0  0
 14 40  1  0  0  0  0
 15 17  2  0  0  0  0
 15 16  1  0  0  0  0
 16 18  2  0  0  0  0
 16 41  1  0  0  0  0
 17 19  1  0  0  0  0
 17 42  1  0  0  0  0
 18 20  1  0  0  0  0
 18 43  1  0  0  0  0
 19 20  2  0  0  0  0
 19 44  1  0  0  0  0
 20 21  1  0  0  0  0
 21 23  1  0  0  0  0
 23 45  1  0  0  0  0
 23 46  1  0  0  0  0
 23 47  1  0  0  0  0
M  END
$$$$
