SM1
 OpenBabel04041917243D

 62 63  0  0  1  0  0  0  0  0999 V2000
   35.1963    4.5243   27.3407 N   0  0  0  0  0  0  0  0  0  0  0  0
   33.8722    4.5513   27.5466 C   0  0  0  0  0  0  0  0  0  0  0  0
   33.2303    3.3821   27.6016 N   0  0  0  0  0  0  0  0  0  0  0  0
   33.2601    5.7398   27.6311 N   0  0  0  0  0  0  0  0  0  0  0  0
   31.8962    5.9766   27.9375 C   0  0  0  0  0  0  0  0  0  0  0  0
   31.2806    7.0487   27.2920 C   0  0  0  0  0  0  0  0  0  0  0  0
   30.0092    7.4671   27.6683 C   0  0  0  0  0  0  0  0  0  0  0  0
   29.3413    6.8251   28.7203 C   0  0  0  0  0  0  0  0  0  0  0  0
   29.9463    5.7207   29.3343 C   0  0  0  0  0  0  0  0  0  0  0  0
   31.2074    5.2774   28.9276 C   0  0  0  0  0  0  0  0  0  0  0  0
   28.0018    7.3281   29.2048 C   0  0  0  0  0  0  0  0  0  0  0  0
   28.1229    8.2110   30.3380 N   0  0  0  0  0  0  0  0  0  0  0  0
   28.4382    9.5308   30.1596 C   0  0  0  0  0  0  0  0  0  0  0  0
   28.5423   10.0539   29.0490 O   0  0  0  0  0  0  0  0  0  0  0  0
   28.6623   10.3393   31.4493 C   0  0  2  0  0  0  0  0  0  0  0  0
   27.4214   11.1973   31.6883 C   0  0  0  0  0  0  0  0  0  0  0  0
   29.7953   11.2452   31.2926 N   0  0  0  0  0  0  0  0  0  0  0  0
   31.0731   10.8340   30.9886 C   0  0  0  0  0  0  0  0  0  0  0  0
   32.0553   11.9987   30.8237 C   0  0  1  0  0  0  0  0  0  0  0  0
   32.7030   12.2776   32.1861 C   0  0  0  0  0  0  0  0  0  0  0  0
   31.7480   12.6172   33.1898 O   0  0  0  0  0  0  0  0  0  0  0  0
   33.0818   11.6421   29.8440 N   0  0  0  0  0  0  0  0  0  0  0  0
   31.4067    9.6674   30.8829 O   0  0  0  0  0  0  0  0  0  0  0  0
   32.4206   13.3527   28.1628 O   0  0  0  0  0  0  0  0  0  0  0  0
   32.9147   11.9974   28.2300 S   0  0  0  0  0  0  0  0  0  0  0  0
   34.1884   11.6096   27.6562 O   0  0  0  0  0  0  0  0  0  0  0  0
   31.6457   10.8639   27.6219 C   0  0  0  0  0  0  0  0  0  0  0  0
   31.4705   11.0771   26.1353 C   0  0  0  0  0  0  0  0  0  0  0  0
   32.2101   10.3235   25.2122 C   0  0  0  0  0  0  0  0  0  0  0  0
   32.0766   10.5456   23.8410 C   0  0  0  0  0  0  0  0  0  0  0  0
   31.1825   11.5072   23.3761 C   0  0  0  0  0  0  0  0  0  0  0  0
   30.4163   12.2403   24.2806 C   0  0  0  0  0  0  0  0  0  0  0  0
   30.5722   12.0413   25.6539 C   0  0  0  0  0  0  0  0  0  0  0  0
   35.7441    5.3739   27.2911 H   0  0  0  0  0  0  0  0  0  0  0  0
   32.2222    3.3446   27.6692 H   0  0  0  0  0  0  0  0  0  0  0  0
   33.7177    2.5048   27.4878 H   0  0  0  0  0  0  0  0  0  0  0  0
   33.8089    6.5637   27.4161 H   0  0  0  0  0  0  0  0  0  0  0  0
   31.7839    7.5554   26.4689 H   0  0  0  0  0  0  0  0  0  0  0  0
   29.5470    8.3120   27.1558 H   0  0  0  0  0  0  0  0  0  0  0  0
   29.4373    5.2171   30.1535 H   0  0  0  0  0  0  0  0  0  0  0  0
   31.6458    4.4364   29.4522 H   0  0  0  0  0  0  0  0  0  0  0  0
   27.3895    6.4722   29.5164 H   0  0  0  0  0  0  0  0  0  0  0  0
   27.4746    7.8396   28.3922 H   0  0  0  0  0  0  0  0  0  0  0  0
   28.0644    7.8180   31.2705 H   0  0  0  0  0  0  0  0  0  0  0  0
   28.8572    9.6683   32.2867 H   0  0  0  0  0  0  0  0  0  0  0  0
   27.5640   11.8232   32.5724 H   0  0  0  0  0  0  0  0  0  0  0  0
   26.5202   10.5864   31.8213 H   0  0  0  0  0  0  0  0  0  0  0  0
   27.2479   11.8670   30.8414 H   0  0  0  0  0  0  0  0  0  0  0  0
   29.5887   12.2460   31.3353 H   0  0  0  0  0  0  0  0  0  0  0  0
   31.4993   12.8959   30.4986 H   0  0  0  0  0  0  0  0  0  0  0  0
   33.3935   13.1235   32.0943 H   0  0  0  0  0  0  0  0  0  0  0  0
   33.2881   11.4187   32.5351 H   0  0  0  0  0  0  0  0  0  0  0  0
   31.1960   11.8339   33.3665 H   0  0  0  0  0  0  0  0  0  0  0  0
   33.9194   11.1530   30.1462 H   0  0  0  0  0  0  0  0  0  0  0  0
   30.7116   11.0706   28.1430 H   0  0  0  0  0  0  0  0  0  0  0  0
   31.9704    9.8415   27.8267 H   0  0  0  0  0  0  0  0  0  0  0  0
   32.9104    9.5687   25.5564 H   0  0  0  0  0  0  0  0  0  0  0  0
   32.6742    9.9760   23.1339 H   0  0  0  0  0  0  0  0  0  0  0  0
   31.0857   11.6915   22.3090 H   0  0  0  0  0  0  0  0  0  0  0  0
   29.7013   12.9744   23.9158 H   0  0  0  0  0  0  0  0  0  0  0  0
   29.9921   12.6519   26.3446 H   0  0  0  0  0  0  0  0  0  0  0  0
   35.6963    3.6511   27.2403 H   0  0  0  0  0  0  0  0  0  0  0  0
  1  2  2  0  0  0  0
  1 34  1  0  0  0  0
  1 62  1  0  0  0  0
  2  3  1  0  0  0  0
  2  4  1  0  0  0  0
  3 35  1  0  0  0  0
  3 36  1  0  0  0  0
  4  5  1  0  0  0  0
  4 37  1  0  0  0  0
  5  6  2  0  0  0  0
  5 10  1  0  0  0  0
  6  7  1  0  0  0  0
  6 38  1  0  0  0  0
  7  8  2  0  0  0  0
  7 39  1  0  0  0  0
  8  9  1  0  0  0  0
  8 11  1  0  0  0  0
  9 10  2  0  0  0  0
  9 40  1  0  0  0  0
 10 41  1  0  0  0  0
 11 12  1  0  0  0  0
 11 42  1  0  0  0  0
 11 43  1  0  0  0  0
 12 13  1  0  0  0  0
 12 44  1  0  0  0  0
 13 14  2  0  0  0  0
 13 15  1  0  0  0  0
 15 16  1  0  0  0  0
 15 17  1  0  0  0  0
 15 45  1  1  0  0  0
 16 46  1  0  0  0  0
 16 47  1  0  0  0  0
 16 48  1  0  0  0  0
 17 18  1  0  0  0  0
 17 49  1  0  0  0  0
 18 19  1  0  0  0  0
 18 23  2  0  0  0  0
 19 20  1  0  0  0  0
 19 22  1  0  0  0  0
 19 50  1  6  0  0  0
 20 21  1  0  0  0  0
 20 51  1  0  0  0  0
 20 52  1  0  0  0  0
 21 53  1  0  0  0  0
 22 25  1  0  0  0  0
 22 54  1  0  0  0  0
 24 25  2  0  0  0  0
 25 26  2  0  0  0  0
 25 27  1  0  0  0  0
 27 28  1  0  0  0  0
 27 55  1  0  0  0  0
 27 56  1  0  0  0  0
 28 29  2  0  0  0  0
 28 33  1  0  0  0  0
 29 30  1  0  0  0  0
 29 57  1  0  0  0  0
 30 31  2  0  0  0  0
 30 58  1  0  0  0  0
 31 32  1  0  0  0  0
 31 59  1  0  0  0  0
 32 33  2  0  0  0  0
 32 60  1  0  0  0  0
 33 61  1  0  0  0  0
M  END
$$$$
