SON
 OpenBabel04041916483D

 40 42  0  0  1  0  0  0  0  0999 V2000
    3.8357  -20.3344    4.8811 P   0  0  0  0  0  0  0  0  0  0  0  0
    5.0113  -21.2856    5.0166 O   0  0  0  0  0  0  0  0  0  0  0  0
    3.0156  -20.1009    6.1355 O   0  0  0  0  0  0  0  0  0  0  0  0
    4.1094  -19.0371    4.1342 O   0  0  0  0  0  0  0  0  0  0  0  0
    2.7020  -21.2019    3.7383 C   0  0  0  0  0  0  0  0  0  0  0  0
    1.6480  -22.0494    4.3874 C   0  0  0  0  0  0  0  0  0  0  0  0
    1.6373  -23.2721    4.2965 O   0  0  0  0  0  0  0  0  0  0  0  0
    0.5783  -21.4339    4.9752 O   0  0  0  0  0  0  0  0  0  0  0  0
    0.0133  -20.2493    4.3863 C   0  0  0  0  0  0  0  0  0  0  0  0
   -0.5375  -19.2712    5.4187 C   0  0  1  0  0  0  0  0  0  0  0  0
   -1.6869  -19.8179    6.0948 O   0  0  0  0  0  0  0  0  0  0  0  0
   -1.6811  -19.2843    7.4370 C   0  0  1  0  0  0  0  0  0  0  0  0
   -1.7163  -20.3902    8.3742 N   0  3  0  0  0  0  0  0  0  0  0  0
   -2.5569  -20.4756    9.4532 C   0  0  0  0  0  0  0  0  0  0  0  0
   -3.5005  -19.5996    9.8511 N   0  0  0  0  0  0  0  0  0  0  0  0
   -4.1346  -20.0482   10.9519 C   0  0  0  0  0  0  0  0  0  0  0  0
   -3.9304  -21.1933   11.6425 N   0  0  0  0  0  0  0  0  0  0  0  0
   -2.9701  -22.0371   11.1975 C   0  0  0  0  0  0  0  0  0  0  0  0
   -2.7633  -23.2205   11.8751 N   0  0  0  0  0  0  0  0  0  0  0  0
   -2.2387  -21.6806   10.0522 C   0  0  0  0  0  0  0  0  0  0  0  0
   -1.2349  -22.3153    9.3788 N   0  0  0  0  0  0  0  0  0  0  0  0
   -0.9328  -21.5161    8.3666 C   0  0  0  0  0  0  0  0  0  0  0  0
   -0.4639  -18.3705    7.6065 C   0  0  2  0  0  0  0  0  0  0  0  0
   -0.8360  -16.9894    7.4425 O   0  0  0  0  0  0  0  0  0  0  0  0
    0.4483  -18.8521    6.4931 C   0  0  2  0  0  0  0  0  0  0  0  0
    1.3301  -17.8412    6.0293 O   0  0  0  0  0  0  0  0  0  0  0  0
    3.3060  -21.8460    3.0905 H   0  0  0  0  0  0  0  0  0  0  0  0
    2.2687  -20.4770    3.0465 H   0  0  0  0  0  0  0  0  0  0  0  0
   -0.8157  -20.6040    3.7642 H   0  0  0  0  0  0  0  0  0  0  0  0
    0.7060  -19.7079    3.7515 H   0  0  0  0  0  0  0  0  0  0  0  0
   -0.8797  -18.3854    4.8673 H   0  0  0  0  0  0  0  0  0  0  0  0
   -2.6102  -18.7152    7.5490 H   0  0  0  0  0  0  0  0  0  0  0  0
   -4.9162  -19.4012   11.3376 H   0  0  0  0  0  0  0  0  0  0  0  0
   -1.9632  -23.7768   11.5966 H   0  0  0  0  0  0  0  0  0  0  0  0
   -3.2385  -23.3575   12.7497 H   0  0  0  0  0  0  0  0  0  0  0  0
   -0.1697  -21.7116    7.6173 H   0  0  0  0  0  0  0  0  0  0  0  0
    0.0032  -18.4455    8.5940 H   0  0  0  0  0  0  0  0  0  0  0  0
    0.0253  -16.5321    7.3436 H   0  0  0  0  0  0  0  0  0  0  0  0
    0.9910  -19.7093    6.8927 H   0  0  0  0  0  0  0  0  0  0  0  0
    2.1139  -18.3543    5.6688 H   0  0  0  0  0  0  0  0  0  0  0  0
  1  2  2  0  0  0  0
  1  3  1  0  0  0  0
  1  4  1  0  0  0  0
  1  5  1  0  0  0  0
  5  6  1  0  0  0  0
  5 27  1  0  0  0  0
  5 28  1  0  0  0  0
  6  7  2  0  0  0  0
  6  8  1  0  0  0  0
  8  9  1  0  0  0  0
  9 10  1  0  0  0  0
  9 29  1  0  0  0  0
  9 30  1  0  0  0  0
 10 11  1  0  0  0  0
 10 25  1  0  0  0  0
 10 31  1  6  0  0  0
 11 12  1  0  0  0  0
 12 13  1  0  0  0  0
 12 23  1  0  0  0  0
 12 32  1  1  0  0  0
 13 14  1  0  0  0  0
 13 22  2  0  0  0  0
 14 15  2  0  0  0  0
 14 20  1  0  0  0  0
 15 16  1  0  0  0  0
 16 17  2  0  0  0  0
 16 33  1  0  0  0  0
 17 18  1  0  0  0  0
 18 19  1  0  0  0  0
 18 20  2  0  0  0  0
 19 34  1  0  0  0  0
 19 35  1  0  0  0  0
 20 21  1  0  0  0  0
 21 22  1  0  0  0  0
 22 36  1  0  0  0  0
 23 24  1  0  0  0  0
 23 25  1  0  0  0  0
 23 37  1  1  0  0  0
 24 38  1  0  0  0  0
 25 26  1  0  0  0  0
 25 39  1  1  0  0  0
 26 40  1  0  0  0  0
M  CHG  1  13   1
M  END
$$$$
