SPB
 OpenBabel04041914413D

 41 42  0  0  0  0  0  0  0  0999 V2000
   59.5251    3.3079  -29.6685 C   0  0  0  0  0  0  0  0  0  0  0  0
   58.3361    3.9595  -29.3164 C   0  0  0  0  0  0  0  0  0  0  0  0
   57.3100    3.2508  -28.6876 C   0  0  0  0  0  0  0  0  0  0  0  0
   57.4661    1.8926  -28.4002 C   0  0  0  0  0  0  0  0  0  0  0  0
   58.6514    1.2454  -28.7519 C   0  0  0  0  0  0  0  0  0  0  0  0
   59.6850    1.9334  -29.3835 C   0  0  0  0  0  0  0  0  0  0  0  0
   60.9440    1.2720  -29.7731 C   0  0  0  0  0  0  0  0  0  0  0  0
   61.2870   -0.0072  -29.5346 C   0  0  0  0  0  0  0  0  0  0  0  0
   62.5774   -0.5804  -29.9772 C   0  0  0  0  0  0  0  0  0  0  0  0
   63.4788    0.1615  -30.7328 C   0  0  0  0  0  0  0  0  0  0  0  0
   64.7028   -0.3550  -31.1450 C   0  0  0  0  0  0  0  0  0  0  0  0
   65.0692   -1.6747  -30.8451 C   0  0  0  0  0  0  0  0  0  0  0  0
   64.1889   -2.4541  -30.0817 C   0  0  0  0  0  0  0  0  0  0  0  0
   62.9496   -1.9066  -29.6329 C   0  0  0  0  0  0  0  0  0  0  0  0
   66.3607   -2.0276  -31.2946 N   0  0  0  0  0  0  0  0  0  0  0  0
   66.9246   -3.2477  -31.5863 C   0  0  0  0  0  0  0  0  0  0  0  0
   68.4348   -3.1646  -31.8062 C   0  0  0  0  0  0  0  0  0  0  0  0
   68.9867   -4.0876  -32.8867 C   0  0  0  0  0  0  0  0  0  0  0  0
   70.5147   -3.9858  -32.9225 C   0  0  0  0  0  0  0  0  0  0  0  0
   71.0514   -4.8200  -34.0806 C   0  0  0  0  0  0  0  0  0  0  0  0
   71.4202   -4.1229  -35.0789 O   0  0  0  0  0  0  0  0  0  0  0  0
   66.2852   -4.3002  -31.6589 O   0  0  0  0  0  0  0  0  0  0  0  0
   71.0802   -6.0616  -33.9166 O   0  0  0  0  0  0  0  0  0  0  0  0
   60.3155    3.8671  -30.1602 H   0  0  0  0  0  0  0  0  0  0  0  0
   58.2103    5.0206  -29.5334 H   0  0  0  0  0  0  0  0  0  0  0  0
   56.3819    3.7478  -28.4171 H   0  0  0  0  0  0  0  0  0  0  0  0
   56.6739    1.3418  -27.9096 H   0  0  0  0  0  0  0  0  0  0  0  0
   58.7471    0.1861  -28.5230 H   0  0  0  0  0  0  0  0  0  0  0  0
   61.6377    1.9133  -30.3028 H   0  0  0  0  0  0  0  0  0  0  0  0
   60.6032   -0.6609  -29.0029 H   0  0  0  0  0  0  0  0  0  0  0  0
   63.2459    1.1833  -31.0380 H   0  0  0  0  0  0  0  0  0  0  0  0
   65.3571    0.2773  -31.7398 H   0  0  0  0  0  0  0  0  0  0  0  0
   64.4508   -3.4720  -29.7898 H   0  0  0  0  0  0  0  0  0  0  0  0
   62.2744   -2.5157  -29.0311 H   0  0  0  0  0  0  0  0  0  0  0  0
   66.9557   -1.2628  -31.5535 H   0  0  0  0  0  0  0  0  0  0  0  0
   68.9051   -3.4361  -30.8530 H   0  0  0  0  0  0  0  0  0  0  0  0
   68.7356   -2.1319  -32.0537 H   0  0  0  0  0  0  0  0  0  0  0  0
   68.5893   -3.7832  -33.8610 H   0  0  0  0  0  0  0  0  0  0  0  0
   68.7022   -5.1152  -32.6849 H   0  0  0  0  0  0  0  0  0  0  0  0
   70.9334   -4.3123  -31.9618 H   0  0  0  0  0  0  0  0  0  0  0  0
   70.8069   -2.9413  -33.0881 H   0  0  0  0  0  0  0  0  0  0  0  0
  1  2  2  0  0  0  0
  1  6  1  0  0  0  0
  1 24  1  0  0  0  0
  2  3  1  0  0  0  0
  2 25  1  0  0  0  0
  3  4  2  0  0  0  0
  3 26  1  0  0  0  0
  4  5  1  0  0  0  0
  4 27  1  0  0  0  0
  5  6  2  0  0  0  0
  5 28  1  0  0  0  0
  6  7  1  0  0  0  0
  7  8  2  0  0  0  0
  7 29  1  0  0  0  0
  8  9  1  0  0  0  0
  8 30  1  0  0  0  0
  9 10  2  0  0  0  0
  9 14  1  0  0  0  0
 10 11  1  0  0  0  0
 10 31  1  0  0  0  0
 11 12  2  0  0  0  0
 11 32  1  0  0  0  0
 12 13  1  0  0  0  0
 12 15  1  0  0  0  0
 13 14  2  0  0  0  0
 13 33  1  0  0  0  0
 14 34  1  0  0  0  0
 15 16  1  0  0  0  0
 15 35  1  0  0  0  0
 16 17  1  0  0  0  0
 16 22  2  0  0  0  0
 17 18  1  0  0  0  0
 17 36  1  0  0  0  0
 17 37  1  0  0  0  0
 18 19  1  0  0  0  0
 18 38  1  0  0  0  0
 18 39  1  0  0  0  0
 19 20  1  0  0  0  0
 19 40  1  0  0  0  0
 19 41  1  0  0  0  0
 20 21  2  0  0  0  0
 20 23  1  0  0  0  0
M  END
$$$$
