SPD
 OpenBabel04041916223D

 32 31  0  0  0  0  0  0  0  0999 V2000
   66.7875   40.3415    4.7326 N   0  3  0  0  0  0  0  0  0  0  0  0
   65.9579   39.7510    5.8121 C   0  0  0  0  0  0  0  0  0  0  0  0
   66.4516   40.2629    7.1612 C   0  0  0  0  0  0  0  0  0  0  0  0
   65.9023   41.6636    7.3829 C   0  0  0  0  0  0  0  0  0  0  0  0
   65.9144   42.1226    8.8307 C   0  0  0  0  0  0  0  0  0  0  0  0
   65.0123   43.3201    8.8231 N   0  3  0  0  0  0  0  0  0  0  0  0
   64.8076   44.0507   10.0821 C   0  0  0  0  0  0  0  0  0  0  0  0
   65.9560   45.0135   10.3033 C   0  0  0  0  0  0  0  0  0  0  0  0
   65.7488   45.7576   11.6097 C   0  0  0  0  0  0  0  0  0  0  0  0
   66.5417   47.0072   11.6070 N   0  3  0  0  0  0  0  0  0  0  0  0
   66.4682   40.0081    3.8074 H   0  0  0  0  0  0  0  0  0  0  0  0
   66.7665   41.3616    4.6964 H   0  0  0  0  0  0  0  0  0  0  0  0
   66.0614   38.6676    5.7252 H   0  0  0  0  0  0  0  0  0  0  0  0
   64.9220   40.0410    5.6137 H   0  0  0  0  0  0  0  0  0  0  0  0
   67.5462   40.2797    7.2135 H   0  0  0  0  0  0  0  0  0  0  0  0
   66.0999   39.5986    7.9558 H   0  0  0  0  0  0  0  0  0  0  0  0
   64.8660   41.6927    7.0240 H   0  0  0  0  0  0  0  0  0  0  0  0
   66.4616   42.3832    6.7717 H   0  0  0  0  0  0  0  0  0  0  0  0
   66.9143   42.4271    9.1549 H   0  0  0  0  0  0  0  0  0  0  0  0
   65.4902   41.3857    9.5185 H   0  0  0  0  0  0  0  0  0  0  0  0
   65.3163   43.9746    8.0886 H   0  0  0  0  0  0  0  0  0  0  0  0
   64.6688   43.3458   10.9009 H   0  0  0  0  0  0  0  0  0  0  0  0
   63.8839   44.6250    9.9415 H   0  0  0  0  0  0  0  0  0  0  0  0
   66.0038   45.7208    9.4642 H   0  0  0  0  0  0  0  0  0  0  0  0
   66.9208   44.4908   10.3170 H   0  0  0  0  0  0  0  0  0  0  0  0
   66.0841   45.1519   12.4512 H   0  0  0  0  0  0  0  0  0  0  0  0
   64.7038   46.0487   11.7503 H   0  0  0  0  0  0  0  0  0  0  0  0
   66.4297   47.5140   12.5116 H   0  0  0  0  0  0  0  0  0  0  0  0
   67.5574   46.8545   11.5053 H   0  0  0  0  0  0  0  0  0  0  0  0
   67.7758   40.0388    4.8037 H   0  0  0  0  0  0  0  0  0  0  0  0
   64.0753   43.0018    8.5272 H   0  0  0  0  0  0  0  0  0  0  0  0
   66.2540   47.6787   10.8836 H   0  0  0  0  0  0  0  0  0  0  0  0
  1  2  1  0  0  0  0
  1 11  1  0  0  0  0
  1 12  1  0  0  0  0
  1 30  1  0  0  0  0
  2  3  1  0  0  0  0
  2 13  1  0  0  0  0
  2 14  1  0  0  0  0
  3  4  1  0  0  0  0
  3 15  1  0  0  0  0
  3 16  1  0  0  0  0
  4  5  1  0  0  0  0
  4 17  1  0  0  0  0
  4 18  1  0  0  0  0
  5  6  1  0  0  0  0
  5 19  1  0  0  0  0
  5 20  1  0  0  0  0
  6  7  1  0  0  0  0
  6 21  1  0  0  0  0
  6 31  1  0  0  0  0
  7  8  1  0  0  0  0
  7 22  1  0  0  0  0
  7 23  1  0  0  0  0
  8  9  1  0  0  0  0
  8 24  1  0  0  0  0
  8 25  1  0  0  0  0
  9 10  1  0  0  0  0
  9 26  1  0  0  0  0
  9 27  1  0  0  0  0
 10 28  1  0  0  0  0
 10 29  1  0  0  0  0
 10 32  1  0  0  0  0
M  CHG  3   1   1   6   1  10   1
M  END
$$$$
