STE
 OpenBabel04041914573D

 55 54  0  0  0  0  0  0  0  0999 V2000
   19.0669   33.2643   52.2223 C   0  0  0  0  0  0  0  0  0  0  0  0
   18.3402   32.1789   52.0775 O   0  0  0  0  0  0  0  0  0  0  0  0
   19.0184   34.3141   51.5631 O   0  0  0  0  0  0  0  0  0  0  0  0
   20.0653   33.1202   53.3398 C   0  0  0  0  0  0  0  0  0  0  0  0
   20.9455   34.3105   53.6629 C   0  0  0  0  0  0  0  0  0  0  0  0
   21.9531   34.0622   54.7888 C   0  0  0  0  0  0  0  0  0  0  0  0
   22.3232   35.3945   55.4341 C   0  0  0  0  0  0  0  0  0  0  0  0
   23.5476   35.3375   56.3349 C   0  0  0  0  0  0  0  0  0  0  0  0
   23.4144   34.4365   57.5504 C   0  0  0  0  0  0  0  0  0  0  0  0
   22.3235   34.9006   58.4976 C   0  0  0  0  0  0  0  0  0  0  0  0
   22.1311   33.9299   59.6505 C   0  0  0  0  0  0  0  0  0  0  0  0
   21.2373   34.5279   60.7337 C   0  0  0  0  0  0  0  0  0  0  0  0
   19.9123   35.0426   60.1751 C   0  0  0  0  0  0  0  0  0  0  0  0
   19.2001   33.9833   59.3509 C   0  0  0  0  0  0  0  0  0  0  0  0
   17.6948   34.0498   59.4447 C   0  0  0  0  0  0  0  0  0  0  0  0
   17.0290   34.8718   58.4030 C   0  0  0  0  0  0  0  0  0  0  0  0
   17.0840   34.3349   56.9718 C   0  0  0  0  0  0  0  0  0  0  0  0
   16.7769   35.4610   55.9774 C   0  0  0  0  0  0  0  0  0  0  0  0
   16.0719   36.6306   56.6639 C   0  0  0  0  0  0  0  0  0  0  0  0
   16.7005   37.9526   56.3196 C   0  0  0  0  0  0  0  0  0  0  0  0
   20.7244   32.2860   53.0661 H   0  0  0  0  0  0  0  0  0  0  0  0
   19.5002   32.8768   54.2514 H   0  0  0  0  0  0  0  0  0  0  0  0
   20.2831   35.1303   53.9412 H   0  0  0  0  0  0  0  0  0  0  0  0
   21.4966   34.5636   52.7521 H   0  0  0  0  0  0  0  0  0  0  0  0
   22.8558   33.5997   54.3726 H   0  0  0  0  0  0  0  0  0  0  0  0
   21.5313   33.4041   55.5511 H   0  0  0  0  0  0  0  0  0  0  0  0
   21.4660   35.7504   56.0139 H   0  0  0  0  0  0  0  0  0  0  0  0
   22.5297   36.1254   54.6459 H   0  0  0  0  0  0  0  0  0  0  0  0
   23.7547   36.3586   56.6801 H   0  0  0  0  0  0  0  0  0  0  0  0
   24.4001   34.9890   55.7438 H   0  0  0  0  0  0  0  0  0  0  0  0
   24.3727   34.4488   58.0830 H   0  0  0  0  0  0  0  0  0  0  0  0
   23.2151   33.4143   57.2208 H   0  0  0  0  0  0  0  0  0  0  0  0
   21.3846   34.9809   57.9486 H   0  0  0  0  0  0  0  0  0  0  0  0
   22.5730   35.8857   58.9044 H   0  0  0  0  0  0  0  0  0  0  0  0
   23.1010   33.6755   60.0783 H   0  0  0  0  0  0  0  0  0  0  0  0
   21.6712   33.0100   59.2645 H   0  0  0  0  0  0  0  0  0  0  0  0
   21.7596   35.3595   61.2225 H   0  0  0  0  0  0  0  0  0  0  0  0
   21.0399   33.7642   61.4970 H   0  0  0  0  0  0  0  0  0  0  0  0
   20.1146   35.9076   59.5253 H   0  0  0  0  0  0  0  0  0  0  0  0
   19.2889   35.3727   61.0015 H   0  0  0  0  0  0  0  0  0  0  0  0
   19.4703   32.9995   59.7404 H   0  0  0  0  0  0  0  0  0  0  0  0
   19.5173   34.0704   58.3145 H   0  0  0  0  0  0  0  0  0  0  0  0
   17.4041   34.4795   60.4030 H   0  0  0  0  0  0  0  0  0  0  0  0
   17.3018   33.0338   59.3365 H   0  0  0  0  0  0  0  0  0  0  0  0
   17.5273   35.8406   58.4477 H   0  0  0  0  0  0  0  0  0  0  0  0
   15.9659   34.9364   58.6851 H   0  0  0  0  0  0  0  0  0  0  0  0
   16.3494   33.5285   56.8492 H   0  0  0  0  0  0  0  0  0  0  0  0
   18.0745   33.9213   56.7565 H   0  0  0  0  0  0  0  0  0  0  0  0
   16.1394   35.0910   55.1681 H   0  0  0  0  0  0  0  0  0  0  0  0
   17.7134   35.8056   55.5227 H   0  0  0  0  0  0  0  0  0  0  0  0
   16.0758   36.6123   57.7361 H   0  0  0  0  0  0  0  0  0  0  0  0
   14.9970   36.6036   56.4532 H   0  0  0  0  0  0  0  0  0  0  0  0
   16.2023   38.7433   56.8853 H   0  0  0  0  0  0  0  0  0  0  0  0
   16.5874   38.1251   55.2637 H   0  0  0  0  0  0  0  0  0  0  0  0
   17.7635   37.9547   56.5855 H   0  0  0  0  0  0  0  0  0  0  0  0
  1  4  1  0  0  0  0
  1  3  2  0  0  0  0
  1  2  1  0  0  0  0
  4  5  1  0  0  0  0
  4 21  1  0  0  0  0
  4 22  1  0  0  0  0
  5  6  1  0  0  0  0
  5 23  1  0  0  0  0
  5 24  1  0  0  0  0
  6  7  1  0  0  0  0
  6 25  1  0  0  0  0
  6 26  1  0  0  0  0
  7  8  1  0  0  0  0
  7 27  1  0  0  0  0
  7 28  1  0  0  0  0
  8  9  1  0  0  0  0
  8 29  1  0  0  0  0
  8 30  1  0  0  0  0
  9 10  1  0  0  0  0
  9 31  1  0  0  0  0
  9 32  1  0  0  0  0
 10 11  1  0  0  0  0
 10 33  1  0  0  0  0
 10 34  1  0  0  0  0
 11 12  1  0  0  0  0
 11 35  1  0  0  0  0
 11 36  1  0  0  0  0
 12 13  1  0  0  0  0
 12 37  1  0  0  0  0
 12 38  1  0  0  0  0
 13 14  1  0  0  0  0
 13 39  1  0  0  0  0
 13 40  1  0  0  0  0
 14 15  1  0  0  0  0
 14 41  1  0  0  0  0
 14 42  1  0  0  0  0
 15 16  1  0  0  0  0
 15 43  1  0  0  0  0
 15 44  1  0  0  0  0
 16 17  1  0  0  0  0
 16 45  1  0  0  0  0
 16 46  1  0  0  0  0
 17 18  1  0  0  0  0
 17 47  1  0  0  0  0
 17 48  1  0  0  0  0
 18 19  1  0  0  0  0
 18 49  1  0  0  0  0
 18 50  1  0  0  0  0
 19 20  1  0  0  0  0
 19 51  1  0  0  0  0
 19 52  1  0  0  0  0
 20 53  1  0  0  0  0
 20 54  1  0  0  0  0
 20 55  1  0  0  0  0
M  END
$$$$
