STR
 OpenBabel04041913523D

 53 56  0  0  1  0  0  0  0  0999 V2000
   21.2215    9.9324   63.0922 C   0  0  0  0  0  0  0  0  0  0  0  0
   21.2472    9.4499   64.5355 C   0  0  0  0  0  0  0  0  0  0  0  0
   21.9774    8.1258   64.6494 C   0  0  0  0  0  0  0  0  0  0  0  0
   21.7085    7.3046   65.5033 O   0  0  0  0  0  0  0  0  0  0  0  0
   23.1153    7.8656   63.7304 C   0  0  0  0  0  0  0  0  0  0  0  0
   23.4444    8.7451   62.7630 C   0  0  0  0  0  0  0  0  0  0  0  0
   24.6831    8.4560   61.9418 C   0  0  0  0  0  0  0  0  0  0  0  0
   24.4485    8.6452   60.4472 C   0  0  0  0  0  0  0  0  0  0  0  0
   23.7853    9.9891   60.1028 C   0  0  2  0  0  0  0  0  0  0  0  0
   22.4420   10.1015   60.8798 C   0  0  1  0  0  0  0  0  0  0  0  0
   22.6412   10.0064   62.4396 C   0  0  1  0  0  0  0  0  0  0  0  0
   21.6374   11.3483   60.4380 C   0  0  0  0  0  0  0  0  0  0  0  0
   21.4484   11.4375   58.9115 C   0  0  0  0  0  0  0  0  0  0  0  0
   22.7979   11.3866   58.1658 C   0  0  1  0  0  0  0  0  0  0  0  0
   23.4895   10.0685   58.5956 C   0  0  1  0  0  0  0  0  0  0  0  0
   24.6521    9.9246   57.6122 C   0  0  0  0  0  0  0  0  0  0  0  0
   24.0625   10.4584   56.2844 C   0  0  0  0  0  0  0  0  0  0  0  0
   22.7031   11.1446   56.6386 C   0  0  2  0  0  0  0  0  0  0  0  0
   23.6446   12.6522   58.4526 C   0  0  0  0  0  0  0  0  0  0  0  0
   23.4127   11.2234   62.9965 C   0  0  0  0  0  0  0  0  0  0  0  0
   22.3819   12.3728   55.7914 C   0  0  0  0  0  0  0  0  0  0  0  0
   23.2242   12.8861   55.0376 O   0  0  0  0  0  0  0  0  0  0  0  0
   21.0034   12.9675   55.8623 C   0  0  0  0  0  0  0  0  0  0  0  0
   20.7390   10.9212   63.0605 H   0  0  0  0  0  0  0  0  0  0  0  0
   20.5915    9.2433   62.5043 H   0  0  0  0  0  0  0  0  0  0  0  0
   20.2253    9.3035   64.9067 H   0  0  0  0  0  0  0  0  0  0  0  0
   21.7415   10.1853   65.1775 H   0  0  0  0  0  0  0  0  0  0  0  0
   23.6846    6.9525   63.8729 H   0  0  0  0  0  0  0  0  0  0  0  0
   25.0220    7.4209   62.1181 H   0  0  0  0  0  0  0  0  0  0  0  0
   25.4958    9.1189   62.2686 H   0  0  0  0  0  0  0  0  0  0  0  0
   23.8028    7.8299   60.0898 H   0  0  0  0  0  0  0  0  0  0  0  0
   25.4087    8.5656   59.9232 H   0  0  0  0  0  0  0  0  0  0  0  0
   24.4542   10.8128   60.3822 H   0  0  0  0  0  0  0  0  0  0  0  0
   21.8369    9.2259   60.5802 H   0  0  0  0  0  0  0  0  0  0  0  0
   22.1573   12.2465   60.7822 H   0  0  0  0  0  0  0  0  0  0  0  0
   20.6520   11.3369   60.9206 H   0  0  0  0  0  0  0  0  0  0  0  0
   20.9046   12.3586   58.6770 H   0  0  0  0  0  0  0  0  0  0  0  0
   20.8208   10.5927   58.5876 H   0  0  0  0  0  0  0  0  0  0  0  0
   22.7958    9.2346   58.3861 H   0  0  0  0  0  0  0  0  0  0  0  0
   24.9878    8.8820   57.5231 H   0  0  0  0  0  0  0  0  0  0  0  0
   25.5200   10.5195   57.9317 H   0  0  0  0  0  0  0  0  0  0  0  0
   23.8992    9.6275   55.5803 H   0  0  0  0  0  0  0  0  0  0  0  0
   24.7637   11.1569   55.8065 H   0  0  0  0  0  0  0  0  0  0  0  0
   21.9038   10.4203   56.4347 H   0  0  0  0  0  0  0  0  0  0  0  0
   23.7196   12.8619   59.5243 H   0  0  0  0  0  0  0  0  0  0  0  0
   23.2152   13.5450   57.9758 H   0  0  0  0  0  0  0  0  0  0  0  0
   24.6659   12.5400   58.0709 H   0  0  0  0  0  0  0  0  0  0  0  0
   23.5278   11.1534   64.0863 H   0  0  0  0  0  0  0  0  0  0  0  0
   22.9075   12.1747   62.7826 H   0  0  0  0  0  0  0  0  0  0  0  0
   24.4198   11.2781   62.5658 H   0  0  0  0  0  0  0  0  0  0  0  0
   20.9444   13.8403   55.1983 H   0  0  0  0  0  0  0  0  0  0  0  0
   20.7984   13.2988   56.8775 H   0  0  0  0  0  0  0  0  0  0  0  0
   20.2690   12.2275   55.5452 H   0  0  0  0  0  0  0  0  0  0  0  0
  1  2  1  0  0  0  0
  1 11  1  0  0  0  0
  1 24  1  0  0  0  0
  1 25  1  0  0  0  0
  2  3  1  0  0  0  0
  2 26  1  0  0  0  0
  2 27  1  0  0  0  0
  3  4  2  0  0  0  0
  3  5  1  0  0  0  0
  5  6  2  0  0  0  0
  5 28  1  0  0  0  0
  6  7  1  0  0  0  0
  6 11  1  0  0  0  0
  7  8  1  0  0  0  0
  7 29  1  0  0  0  0
  7 30  1  0  0  0  0
  8  9  1  0  0  0  0
  8 31  1  0  0  0  0
  8 32  1  0  0  0  0
  9 10  1  0  0  0  0
  9 15  1  0  0  0  0
  9 33  1  1  0  0  0
 10 11  1  0  0  0  0
 10 12  1  0  0  0  0
 10 34  1  6  0  0  0
 11 20  1  1  0  0  0
 12 13  1  0  0  0  0
 12 35  1  0  0  0  0
 12 36  1  0  0  0  0
 13 14  1  0  0  0  0
 13 37  1  0  0  0  0
 13 38  1  0  0  0  0
 14 15  1  0  0  0  0
 14 18  1  0  0  0  0
 14 19  1  1  0  0  0
 15 16  1  0  0  0  0
 15 39  1  6  0  0  0
 16 17  1  0  0  0  0
 16 40  1  0  0  0  0
 16 41  1  0  0  0  0
 17 18  1  0  0  0  0
 17 42  1  0  0  0  0
 17 43  1  0  0  0  0
 18 21  1  0  0  0  0
 18 44  1  6  0  0  0
 19 45  1  0  0  0  0
 19 46  1  0  0  0  0
 19 47  1  0  0  0  0
 20 48  1  0  0  0  0
 20 49  1  0  0  0  0
 20 50  1  0  0  0  0
 21 22  2  0  0  0  0
 21 23  1  0  0  0  0
 23 51  1  0  0  0  0
 23 52  1  0  0  0  0
 23 53  1  0  0  0  0
M  END
$$$$
