STU
 OpenBabel04041916533D

 62 69  0  0  1  0  0  0  0  0999 V2000
    9.9965   21.0479   30.6879 C   0  0  0  0  0  0  0  0  0  0  0  0
    9.2493   19.8731   30.5187 C   0  0  0  0  0  0  0  0  0  0  0  0
    7.8907   19.9409   30.2986 C   0  0  0  0  0  0  0  0  0  0  0  0
    7.2518   21.1870   30.2439 C   0  0  0  0  0  0  0  0  0  0  0  0
    7.9653   22.4002   30.4088 C   0  0  0  0  0  0  0  0  0  0  0  0
    7.5271   23.7561   30.3677 N   0  3  0  0  0  0  0  0  0  0  0  0
    8.7130   24.4302   30.4811 C   0  0  0  0  0  0  0  0  0  0  0  0
    8.9394   25.8122   30.3654 C   0  0  0  0  0  0  0  0  0  0  0  0
    8.0052   26.7722   30.1521 N   0  3  0  0  0  0  0  0  0  0  0  0
    8.7827   27.9478   30.0754 C   0  0  0  0  0  0  0  0  0  0  0  0
    8.3537   29.2781   29.8367 C   0  0  0  0  0  0  0  0  0  0  0  0
    9.2822   30.3041   29.7416 C   0  0  0  0  0  0  0  0  0  0  0  0
   10.6352   30.0473   29.9057 C   0  0  0  0  0  0  0  0  0  0  0  0
   11.0831   28.7306   30.1727 C   0  0  0  0  0  0  0  0  0  0  0  0
   10.1807   27.6352   30.2554 C   0  0  0  0  0  0  0  0  0  0  0  0
   10.2818   26.2224   30.4665 C   0  0  0  0  0  0  0  0  0  0  0  0
   11.4546   25.4632   30.6891 C   0  0  0  0  0  0  0  0  0  0  0  0
   12.8501   25.7121   30.8550 C   0  0  0  0  0  0  0  0  0  0  0  0
   13.3836   24.4407   31.0807 N   0  0  0  0  0  0  0  0  0  0  0  0
   12.4464   23.3360   31.0770 C   0  0  0  0  0  0  0  0  0  0  0  0
   11.2215   24.0714   30.8096 C   0  0  0  0  0  0  0  0  0  0  0  0
    9.8809   23.6772   30.6806 C   0  0  0  0  0  0  0  0  0  0  0  0
    9.3960   22.3392   30.6274 C   0  0  0  0  0  0  0  0  0  0  0  0
    6.2229   24.2847   29.9924 C   0  0  2  0  0  0  0  0  0  0  0  0
    6.0176   24.2861   28.4375 C   0  0  1  0  0  0  0  0  0  0  0  0
    5.3107   25.6089   28.0923 C   0  0  1  0  0  0  0  0  0  0  0  0
    6.2040   26.7861   28.4498 C   0  0  0  0  0  0  0  0  0  0  0  0
    6.5924   26.6933   29.9247 C   0  0  1  0  0  0  0  0  0  0  0  0
    6.0473   25.5776   30.5937 O   0  0  0  0  0  0  0  0  0  0  0  0
   13.5420   26.7224   30.8369 O   0  0  0  0  0  0  0  0  0  0  0  0
    4.9676   25.6630   26.6177 N   0  3  0  0  0  0  0  0  0  0  0  0
    3.5451   25.3512   26.3275 C   0  0  0  0  0  0  0  0  0  0  0  0
    7.2771   24.3087   27.7358 O   0  0  0  0  0  0  0  0  0  0  0  0
    7.4418   23.4414   26.6248 C   0  0  0  0  0  0  0  0  0  0  0  0
    5.0553   23.5455   30.6772 C   0  0  0  0  0  0  0  0  0  0  0  0
   11.0626   20.9351   30.8506 H   0  0  0  0  0  0  0  0  0  0  0  0
    9.7378   18.8994   30.5520 H   0  0  0  0  0  0  0  0  0  0  0  0
    7.3148   19.0270   30.1690 H   0  0  0  0  0  0  0  0  0  0  0  0
    6.1856   21.1430   30.0679 H   0  0  0  0  0  0  0  0  0  0  0  0
    7.3001   29.5240   29.7249 H   0  0  0  0  0  0  0  0  0  0  0  0
    8.9557   31.3314   29.5395 H   0  0  0  0  0  0  0  0  0  0  0  0
   11.3532   30.8545   29.8321 H   0  0  0  0  0  0  0  0  0  0  0  0
   12.1513   28.5895   30.2973 H   0  0  0  0  0  0  0  0  0  0  0  0
   14.3711   24.3522   31.2957 H   0  0  0  0  0  0  0  0  0  0  0  0
   12.4368   22.8596   32.0611 H   0  0  0  0  0  0  0  0  0  0  0  0
   12.7184   22.6330   30.2812 H   0  0  0  0  0  0  0  0  0  0  0  0
    5.4255   23.4157   28.1288 H   0  0  0  0  0  0  0  0  0  0  0  0
    4.3624   25.7056   28.6310 H   0  0  0  0  0  0  0  0  0  0  0  0
    7.0951   26.8394   27.8076 H   0  0  0  0  0  0  0  0  0  0  0  0
    5.6707   27.7289   28.2776 H   0  0  0  0  0  0  0  0  0  0  0  0
    6.1625   27.5584   30.4431 H   0  0  0  0  0  0  0  0  0  0  0  0
    5.2219   26.5727   26.2070 H   0  0  0  0  0  0  0  0  0  0  0  0
    3.4197   25.3442   25.2440 H   0  0  0  0  0  0  0  0  0  0  0  0
    2.9379   26.1316   26.7898 H   0  0  0  0  0  0  0  0  0  0  0  0
    3.3205   24.3684   26.7507 H   0  0  0  0  0  0  0  0  0  0  0  0
    8.5059   23.4146   26.3765 H   0  0  0  0  0  0  0  0  0  0  0  0
    6.9379   23.8540   25.7499 H   0  0  0  0  0  0  0  0  0  0  0  0
    7.0833   22.4277   26.8162 H   0  0  0  0  0  0  0  0  0  0  0  0
    4.1037   24.0325   30.4365 H   0  0  0  0  0  0  0  0  0  0  0  0
    5.1574   23.5757   31.7697 H   0  0  0  0  0  0  0  0  0  0  0  0
    4.9391   22.5113   30.3732 H   0  0  0  0  0  0  0  0  0  0  0  0
    5.5532   24.9987   26.1037 H   0  0  0  0  0  0  0  0  0  0  0  0
  1 23  2  0  0  0  0
  1  2  1  0  0  0  0
  1 36  1  0  0  0  0
  2  3  2  0  0  0  0
  2 37  1  0  0  0  0
  3  4  1  0  0  0  0
  3 38  1  0  0  0  0
  4  5  2  0  0  0  0
  4 39  1  0  0  0  0
  5 23  1  0  0  0  0
  5  6  1  0  0  0  0
  6 24  1  0  0  0  0
  6  7  2  0  0  0  0
  7 22  1  0  0  0  0
  7  8  1  0  0  0  0
  8 16  1  0  0  0  0
  8  9  2  0  0  0  0
  9 28  1  0  0  0  0
  9 10  1  0  0  0  0
 10 15  2  0  0  0  0
 10 11  1  0  0  0  0
 11 12  2  0  0  0  0
 11 40  1  0  0  0  0
 12 13  1  0  0  0  0
 12 41  1  0  0  0  0
 13 14  2  0  0  0  0
 13 42  1  0  0  0  0
 14 15  1  0  0  0  0
 14 43  1  0  0  0  0
 15 16  1  0  0  0  0
 16 17  2  0  0  0  0
 17 21  1  0  0  0  0
 17 18  1  0  0  0  0
 18 30  2  0  0  0  0
 18 19  1  0  0  0  0
 19 20  1  0  0  0  0
 19 44  1  0  0  0  0
 20 21  1  0  0  0  0
 20 45  1  0  0  0  0
 20 46  1  0  0  0  0
 21 22  2  0  0  0  0
 22 23  1  0  0  0  0
 24 25  1  0  0  0  0
 24 35  1  1  0  0  0
 24 29  1  0  0  0  0
 25 26  1  0  0  0  0
 25 33  1  0  0  0  0
 25 47  1  6  0  0  0
 26 27  1  0  0  0  0
 26 31  1  0  0  0  0
 26 48  1  1  0  0  0
 27 28  1  0  0  0  0
 27 49  1  0  0  0  0
 27 50  1  0  0  0  0
 28 29  1  0  0  0  0
 28 51  1  1  0  0  0
 31 32  1  0  0  0  0
 31 52  1  0  0  0  0
 31 62  1  0  0  0  0
 32 53  1  0  0  0  0
 32 54  1  0  0  0  0
 32 55  1  0  0  0  0
 33 34  1  0  0  0  0
 34 56  1  0  0  0  0
 34 57  1  0  0  0  0
 34 58  1  0  0  0  0
 35 59  1  0  0  0  0
 35 60  1  0  0  0  0
 35 61  1  0  0  0  0
M  CHG  3   6   1   9   1  31   1
M  END
$$$$
