STU
 OpenBabel04041917403D

 62 69  0  0  1  0  0  0  0  0999 V2000
   53.2942   10.3458    0.5987 C   0  0  0  0  0  0  0  0  0  0  0  0
   52.0512    9.9295    0.0265 C   0  0  0  0  0  0  0  0  0  0  0  0
   51.6374    8.6004    0.1765 C   0  0  0  0  0  0  0  0  0  0  0  0
   52.4500    7.6797    0.9206 C   0  0  0  0  0  0  0  0  0  0  0  0
   53.7370    8.0625    1.5118 C   0  0  0  0  0  0  0  0  0  0  0  0
   54.7561    7.3035    2.2874 N   0  3  0  0  0  0  0  0  0  0  0  0
   55.7227    8.2859    2.5744 C   0  0  0  0  0  0  0  0  0  0  0  0
   56.9803    8.1170    3.3574 C   0  0  0  0  0  0  0  0  0  0  0  0
   57.4759    6.9568    3.9748 N   0  3  0  0  0  0  0  0  0  0  0  0
   58.7278    7.3967    4.5953 C   0  0  0  0  0  0  0  0  0  0  0  0
   59.6886    6.6464    5.3963 C   0  0  0  0  0  0  0  0  0  0  0  0
   60.8741    7.2664    5.8824 C   0  0  0  0  0  0  0  0  0  0  0  0
   61.1177    8.6205    5.6119 C   0  0  0  0  0  0  0  0  0  0  0  0
   60.1920    9.3796    4.8295 C   0  0  0  0  0  0  0  0  0  0  0  0
   58.9480    8.8104    4.2876 C   0  0  0  0  0  0  0  0  0  0  0  0
   57.7839    9.2909    3.4719 C   0  0  0  0  0  0  0  0  0  0  0  0
   57.5440   10.5658    2.9393 C   0  0  0  0  0  0  0  0  0  0  0  0
   58.2389   11.8787    2.9371 C   0  0  0  0  0  0  0  0  0  0  0  0
   57.3950   12.7086    2.2218 N   0  0  0  0  0  0  0  0  0  0  0  0
   56.1733   12.1593    1.6948 C   0  0  0  0  0  0  0  0  0  0  0  0
   56.3018   10.7600    2.1870 C   0  0  0  0  0  0  0  0  0  0  0  0
   55.4905    9.6030    2.0657 C   0  0  0  0  0  0  0  0  0  0  0  0
   54.1883    9.4556    1.3635 C   0  0  0  0  0  0  0  0  0  0  0  0
   54.7515    5.9252    2.8093 C   0  0  2  0  0  0  0  0  0  0  0  0
   53.9979    5.8090    4.2187 C   0  0  1  0  0  0  0  0  0  0  0  0
   54.7691    4.7190    5.0428 C   0  0  1  0  0  0  0  0  0  0  0  0
   56.2355    5.1600    5.2604 C   0  0  0  0  0  0  0  0  0  0  0  0
   56.9556    5.5964    3.9591 C   0  0  1  0  0  0  0  0  0  0  0  0
   56.1211    5.4136    2.8204 O   0  0  0  0  0  0  0  0  0  0  0  0
   59.2812   12.2568    3.4169 O   0  0  0  0  0  0  0  0  0  0  0  0
   54.1326    4.4050    6.4432 N   0  3  0  0  0  0  0  0  0  0  0  0
   54.8218    3.3040    7.2234 C   0  0  0  0  0  0  0  0  0  0  0  0
   54.0081    7.0431    4.9775 O   0  0  0  0  0  0  0  0  0  0  0  0
   52.7947    7.8116    4.8876 C   0  0  0  0  0  0  0  0  0  0  0  0
   54.1171    4.8463    1.8710 C   0  0  0  0  0  0  0  0  0  0  0  0
   53.5951   11.3872    0.4364 H   0  0  0  0  0  0  0  0  0  0  0  0
   51.4309   10.6524   -0.5275 H   0  0  0  0  0  0  0  0  0  0  0  0
   50.6905    8.2612   -0.2790 H   0  0  0  0  0  0  0  0  0  0  0  0
   52.0441    6.6650    1.0211 H   0  0  0  0  0  0  0  0  0  0  0  0
   59.5149    5.5885    5.6493 H   0  0  0  0  0  0  0  0  0  0  0  0
   61.6034    6.6873    6.4682 H   0  0  0  0  0  0  0  0  0  0  0  0
   62.0292    9.1085    6.0023 H   0  0  0  0  0  0  0  0  0  0  0  0
   60.4495   10.4258    4.6271 H   0  0  0  0  0  0  0  0  0  0  0  0
   57.7050   13.7130    2.0912 H   0  0  0  0  0  0  0  0  0  0  0  0
   56.1860   12.2454    0.6007 H   0  0  0  0  0  0  0  0  0  0  0  0
   55.3224   12.7044    2.1241 H   0  0  0  0  0  0  0  0  0  0  0  0
   52.9464    5.5053    4.0696 H   0  0  0  0  0  0  0  0  0  0  0  0
   54.7019    3.7639    4.5051 H   0  0  0  0  0  0  0  0  0  0  0  0
   56.7922    4.3383    5.7412 H   0  0  0  0  0  0  0  0  0  0  0  0
   56.2652    5.9893    5.9744 H   0  0  0  0  0  0  0  0  0  0  0  0
   57.8398    4.9259    3.8084 H   0  0  0  0  0  0  0  0  0  0  0  0
   54.1344    5.2689    7.0171 H   0  0  0  0  0  0  0  0  0  0  0  0
   54.3368    3.1680    8.1951 H   0  0  0  0  0  0  0  0  0  0  0  0
   55.8622    3.5892    7.3888 H   0  0  0  0  0  0  0  0  0  0  0  0
   54.7658    2.3788    6.6413 H   0  0  0  0  0  0  0  0  0  0  0  0
   52.9097    8.7593    5.4322 H   0  0  0  0  0  0  0  0  0  0  0  0
   51.9864    7.2458    5.3586 H   0  0  0  0  0  0  0  0  0  0  0  0
   52.5166    8.0459    3.8593 H   0  0  0  0  0  0  0  0  0  0  0  0
   54.2528    3.8321    2.2929 H   0  0  0  0  0  0  0  0  0  0  0  0
   54.5906    4.8110    0.8799 H   0  0  0  0  0  0  0  0  0  0  0  0
   53.0447    4.9831    1.7420 H   0  0  0  0  0  0  0  0  0  0  0  0
   53.1339    4.1511    6.3596 H   0  0  0  0  0  0  0  0  0  0  0  0
  1  2  2  0  0  0  0
  1 23  1  0  0  0  0
  1 36  1  0  0  0  0
  2  3  1  0  0  0  0
  2 37  1  0  0  0  0
  3  4  2  0  0  0  0
  3 38  1  0  0  0  0
  4  5  1  0  0  0  0
  4 39  1  0  0  0  0
  5  6  2  0  0  0  0
  5 23  1  0  0  0  0
  6  7  1  0  0  0  0
  6 24  1  0  0  0  0
  7  8  2  0  0  0  0
  7 22  1  0  0  0  0
  8  9  1  0  0  0  0
  8 16  1  0  0  0  0
  9 10  2  0  0  0  0
  9 28  1  0  0  0  0
 10 11  1  0  0  0  0
 10 15  1  0  0  0  0
 11 12  2  0  0  0  0
 11 40  1  0  0  0  0
 12 13  1  0  0  0  0
 12 41  1  0  0  0  0
 13 14  2  0  0  0  0
 13 42  1  0  0  0  0
 14 15  1  0  0  0  0
 14 43  1  0  0  0  0
 15 16  2  0  0  0  0
 16 17  1  0  0  0  0
 17 18  1  0  0  0  0
 17 21  2  0  0  0  0
 18 19  1  0  0  0  0
 18 30  2  0  0  0  0
 19 20  1  0  0  0  0
 19 44  1  0  0  0  0
 20 21  1  0  0  0  0
 20 45  1  0  0  0  0
 20 46  1  0  0  0  0
 21 22  1  0  0  0  0
 22 23  2  0  0  0  0
 24 25  1  0  0  0  0
 24 29  1  0  0  0  0
 24 35  1  6  0  0  0
 25 26  1  0  0  0  0
 25 33  1  0  0  0  0
 25 47  1  6  0  0  0
 26 27  1  0  0  0  0
 26 31  1  0  0  0  0
 26 48  1  6  0  0  0
 27 28  1  0  0  0  0
 27 49  1  0  0  0  0
 27 50  1  0  0  0  0
 28 29  1  0  0  0  0
 28 51  1  6  0  0  0
 31 32  1  0  0  0  0
 31 52  1  0  0  0  0
 31 62  1  0  0  0  0
 32 53  1  0  0  0  0
 32 54  1  0  0  0  0
 32 55  1  0  0  0  0
 33 34  1  0  0  0  0
 34 56  1  0  0  0  0
 34 57  1  0  0  0  0
 34 58  1  0  0  0  0
 35 59  1  0  0  0  0
 35 60  1  0  0  0  0
 35 61  1  0  0  0  0
M  CHG  3   6   1   9   1  31   1
M  END
$$$$
