STU
 OpenBabel04041915583D

 62 69  0  0  1  0  0  0  0  0999 V2000
    4.1057    3.6911   16.8851 O   0  0  0  0  0  0  0  0  0  0  0  0
    2.9194    4.4475   16.9811 C   0  0  2  0  0  0  0  0  0  0  0  0
    2.1378    4.5289   15.6660 C   0  0  0  0  0  0  0  0  0  0  0  0
    2.9601    3.9063   14.5427 C   0  0  2  0  0  0  0  0  0  0  0  0
    4.3647    4.5389   14.5393 C   0  0  2  0  0  0  0  0  0  0  0  0
    5.0437    4.0645   15.8627 C   0  0  2  0  0  0  0  0  0  0  0  0
    5.6977    2.6907   15.6191 C   0  0  0  0  0  0  0  0  0  0  0  0
    5.9426    5.0562   16.4068 N   0  3  0  0  0  0  0  0  0  0  0  0
    5.6027    6.1382   17.1715 C   0  0  0  0  0  0  0  0  0  0  0  0
    4.3298    6.4471   17.7033 C   0  0  0  0  0  0  0  0  0  0  0  0
    4.2587    7.6387   18.4425 C   0  0  0  0  0  0  0  0  0  0  0  0
    5.2611    8.5800   18.7417 C   0  0  0  0  0  0  0  0  0  0  0  0
    6.5319    8.2788   18.1819 C   0  0  0  0  0  0  0  0  0  0  0  0
    6.5951    7.0860   17.4448 C   0  0  0  0  0  0  0  0  0  0  0  0
    7.7249    6.5701   16.7435 C   0  0  0  0  0  0  0  0  0  0  0  0
    7.3132    5.3337   16.1000 C   0  0  0  0  0  0  0  0  0  0  0  0
    8.2554    4.6466   15.2801 C   0  0  0  0  0  0  0  0  0  0  0  0
    9.5657    5.1183   15.1150 C   0  0  0  0  0  0  0  0  0  0  0  0
    9.9723    6.2796   15.7378 C   0  0  0  0  0  0  0  0  0  0  0  0
    9.0691    6.9996   16.5340 C   0  0  0  0  0  0  0  0  0  0  0  0
    7.5272    9.2938   18.5142 C   0  0  0  0  0  0  0  0  0  0  0  0
    6.6877   10.1776   19.3112 N   0  0  0  0  0  0  0  0  0  0  0  0
    5.3611    9.7945   19.4745 C   0  0  0  0  0  0  0  0  0  0  0  0
    4.5625   10.4568   20.1328 O   0  0  0  0  0  0  0  0  0  0  0  0
    2.8761    7.6727   18.8402 C   0  0  0  0  0  0  0  0  0  0  0  0
    2.2451    6.4992   18.2865 C   0  0  0  0  0  0  0  0  0  0  0  0
    0.8580    6.2435   18.4903 C   0  0  0  0  0  0  0  0  0  0  0  0
    0.0893    7.1323   19.2445 C   0  0  0  0  0  0  0  0  0  0  0  0
    0.6720    8.2584   19.8068 C   0  0  0  0  0  0  0  0  0  0  0  0
    2.0349    8.5245   19.6125 C   0  0  0  0  0  0  0  0  0  0  0  0
    3.1880    5.7210   17.5766 N   0  3  0  0  0  0  0  0  0  0  0  0
    4.1330    5.9575   14.4096 O   0  0  0  0  0  0  0  0  0  0  0  0
    5.1541    6.6604   13.7024 C   0  0  0  0  0  0  0  0  0  0  0  0
    2.2510    4.1395   13.2266 N   0  3  0  0  0  0  0  0  0  0  0  0
    2.9099    3.5031   12.0502 C   0  0  0  0  0  0  0  0  0  0  0  0
    2.3027    3.9122   17.7123 H   0  0  0  0  0  0  0  0  0  0  0  0
    1.8674    5.5701   15.4397 H   0  0  0  0  0  0  0  0  0  0  0  0
    1.1814    4.0028   15.7741 H   0  0  0  0  0  0  0  0  0  0  0  0
    2.9985    2.8193   14.6655 H   0  0  0  0  0  0  0  0  0  0  0  0
    4.9663    4.2125   13.6865 H   0  0  0  0  0  0  0  0  0  0  0  0
    6.3971    2.6842   14.7866 H   0  0  0  0  0  0  0  0  0  0  0  0
    4.9367    1.9394   15.3751 H   0  0  0  0  0  0  0  0  0  0  0  0
    6.2004    2.3294   16.5237 H   0  0  0  0  0  0  0  0  0  0  0  0
    8.0199    3.7333   14.7504 H   0  0  0  0  0  0  0  0  0  0  0  0
   10.2684    4.5610   14.4977 H   0  0  0  0  0  0  0  0  0  0  0  0
   10.9937    6.6340   15.6091 H   0  0  0  0  0  0  0  0  0  0  0  0
    9.4319    7.9150   16.9954 H   0  0  0  0  0  0  0  0  0  0  0  0
    7.8881    9.8353   17.6376 H   0  0  0  0  0  0  0  0  0  0  0  0
    8.3400    8.9047   19.1305 H   0  0  0  0  0  0  0  0  0  0  0  0
    7.0140   11.0226   19.7543 H   0  0  0  0  0  0  0  0  0  0  0  0
    0.3732    5.3663   18.0710 H   0  0  0  0  0  0  0  0  0  0  0  0
   -0.9738    6.9428   19.4049 H   0  0  0  0  0  0  0  0  0  0  0  0
    0.0729    8.9300   20.4139 H   0  0  0  0  0  0  0  0  0  0  0  0
    2.4463    9.4162   20.0931 H   0  0  0  0  0  0  0  0  0  0  0  0
    4.9643    7.7340   13.7878 H   0  0  0  0  0  0  0  0  0  0  0  0
    5.1181    6.3757   12.6485 H   0  0  0  0  0  0  0  0  0  0  0  0
    6.1506    6.4588   14.0894 H   0  0  0  0  0  0  0  0  0  0  0  0
    1.2856    3.7857   13.2902 H   0  0  0  0  0  0  0  0  0  0  0  0
    2.2918    3.6924   11.1725 H   0  0  0  0  0  0  0  0  0  0  0  0
    2.9957    2.4313   12.2472 H   0  0  0  0  0  0  0  0  0  0  0  0
    3.8935    3.9552   11.9110 H   0  0  0  0  0  0  0  0  0  0  0  0
    2.1699    5.1587   13.0728 H   0  0  0  0  0  0  0  0  0  0  0  0
  1  2  1  0  0  0  0
  1  6  1  0  0  0  0
  2  3  1  0  0  0  0
  2 31  1  0  0  0  0
  2 36  1  1  0  0  0
  3  4  1  0  0  0  0
  3 37  1  0  0  0  0
  3 38  1  0  0  0  0
  4  5  1  0  0  0  0
  4 34  1  0  0  0  0
  4 39  1  1  0  0  0
  5  6  1  0  0  0  0
  5 32  1  0  0  0  0
  5 40  1  6  0  0  0
  6  7  1  6  0  0  0
  6  8  1  0  0  0  0
  7 41  1  0  0  0  0
  7 42  1  0  0  0  0
  7 43  1  0  0  0  0
  8  9  2  0  0  0  0
  8 16  1  0  0  0  0
  9 10  1  0  0  0  0
  9 14  1  0  0  0  0
 10 11  1  0  0  0  0
 10 31  2  0  0  0  0
 11 12  2  0  0  0  0
 11 25  1  0  0  0  0
 12 13  1  0  0  0  0
 12 23  1  0  0  0  0
 13 14  2  0  0  0  0
 13 21  1  0  0  0  0
 14 15  1  0  0  0  0
 15 16  2  0  0  0  0
 15 20  1  0  0  0  0
 16 17  1  0  0  0  0
 17 18  2  0  0  0  0
 17 44  1  0  0  0  0
 18 19  1  0  0  0  0
 18 45  1  0  0  0  0
 19 20  2  0  0  0  0
 19 46  1  0  0  0  0
 20 47  1  0  0  0  0
 21 22  1  0  0  0  0
 21 48  1  0  0  0  0
 21 49  1  0  0  0  0
 22 23  1  0  0  0  0
 22 50  1  0  0  0  0
 23 24  2  0  0  0  0
 25 26  2  0  0  0  0
 25 30  1  0  0  0  0
 26 27  1  0  0  0  0
 26 31  1  0  0  0  0
 27 28  2  0  0  0  0
 27 51  1  0  0  0  0
 28 29  1  0  0  0  0
 28 52  1  0  0  0  0
 29 30  2  0  0  0  0
 29 53  1  0  0  0  0
 30 54  1  0  0  0  0
 32 33  1  0  0  0  0
 33 55  1  0  0  0  0
 33 56  1  0  0  0  0
 33 57  1  0  0  0  0
 34 35  1  0  0  0  0
 34 58  1  0  0  0  0
 34 62  1  0  0  0  0
 35 59  1  0  0  0  0
 35 60  1  0  0  0  0
 35 61  1  0  0  0  0
M  CHG  3   8   1  31   1  34   1
M  END
$$$$
