T44
 OpenBabel04041914573D

 34 35  0  0  1  0  0  0  0  0999 V2000
   19.9343   10.5494   28.4596 C   0  0  0  0  0  0  0  0  0  0  0  0
   21.1454   10.1822   27.8500 C   0  0  0  0  0  0  0  0  0  0  0  0
   21.3707   10.3815   26.4687 C   0  0  0  0  0  0  0  0  0  0  0  0
   20.3976   10.9870   25.6591 C   0  0  0  0  0  0  0  0  0  0  0  0
   19.1758   11.3395   26.2548 C   0  0  0  0  0  0  0  0  0  0  0  0
   18.9535   11.1370   27.6412 C   0  0  0  0  0  0  0  0  0  0  0  0
   19.7486   10.3840   29.9736 C   0  0  0  0  0  0  0  0  0  0  0  0
   20.0705    8.9996   30.5498 C   0  0  1  0  0  0  0  0  0  0  0  0
   20.2950    9.0054   32.1008 C   0  0  0  0  0  0  0  0  0  0  0  0
   21.2460   12.2311   23.7880 C   0  0  0  0  0  0  0  0  0  0  0  0
   21.4700   12.2444   22.4021 C   0  0  0  0  0  0  0  0  0  0  0  0
   22.1276   13.3419   21.7941 C   0  0  0  0  0  0  0  0  0  0  0  0
   22.6010   14.4777   22.5036 C   0  0  0  0  0  0  0  0  0  0  0  0
   22.3440   14.3998   23.8955 C   0  0  0  0  0  0  0  0  0  0  0  0
   21.6874   13.3211   24.5373 C   0  0  0  0  0  0  0  0  0  0  0  0
   18.9234    8.0683   30.1757 N   0  3  0  0  0  0  0  0  0  0  0  0
   20.5889   11.1192   24.2920 O   0  0  0  0  0  0  0  0  0  0  0  0
   23.1932   15.4653   21.9468 O   0  0  0  0  0  0  0  0  0  0  0  0
   19.4367    9.6502   32.7459 O   0  0  0  0  0  0  0  0  0  0  0  0
   21.1627    8.1525   32.4881 O   0  0  0  0  0  0  0  0  0  0  0  0
   23.2169    9.7466   25.6914 I   0  0  0  0  0  0  0  0  0  0  0  0
   22.4048   13.2531   19.6633 I   0  0  0  0  0  0  0  0  0  0  0  0
   17.6321   12.1960   25.1065 I   0  0  0  0  0  0  0  0  0  0  0  0
   22.9638   16.0002   25.1830 I   0  0  0  0  0  0  0  0  0  0  0  0
   21.9419    9.7546   28.4589 H   0  0  0  0  0  0  0  0  0  0  0  0
   18.0025   11.4703   28.0806 H   0  0  0  0  0  0  0  0  0  0  0  0
   18.7099   10.6324   30.2247 H   0  0  0  0  0  0  0  0  0  0  0  0
   20.3923   11.1192   30.4741 H   0  0  0  0  0  0  0  0  0  0  0  0
   20.9611    8.5744   30.0833 H   0  0  0  0  0  0  0  0  0  0  0  0
   21.1359   11.4049   21.7985 H   0  0  0  0  0  0  0  0  0  0  0  0
   21.5346   13.3593   25.6030 H   0  0  0  0  0  0  0  0  0  0  0  0
   19.1136    7.1476   30.5964 H   0  0  0  0  0  0  0  0  0  0  0  0
   18.0717    8.4291   30.6305 H   0  0  0  0  0  0  0  0  0  0  0  0
   18.8070    7.9984   29.1668 H   0  0  0  0  0  0  0  0  0  0  0  0
  1  2  2  0  0  0  0
  1  6  1  0  0  0  0
  1  7  1  0  0  0  0
  2  3  1  0  0  0  0
  2 25  1  0  0  0  0
  3  4  2  0  0  0  0
  3 21  1  0  0  0  0
  4  5  1  0  0  0  0
  4 17  1  0  0  0  0
  5  6  2  0  0  0  0
  5 23  1  0  0  0  0
  6 26  1  0  0  0  0
  7  8  1  0  0  0  0
  7 27  1  0  0  0  0
  7 28  1  0  0  0  0
  8  9  1  0  0  0  0
  8 16  1  0  0  0  0
  8 29  1  6  0  0  0
  9 19  2  0  0  0  0
  9 20  1  0  0  0  0
 10 11  2  0  0  0  0
 10 15  1  0  0  0  0
 10 17  1  0  0  0  0
 11 12  1  0  0  0  0
 11 30  1  0  0  0  0
 12 13  2  0  0  0  0
 12 22  1  0  0  0  0
 13 14  1  0  0  0  0
 13 18  1  0  0  0  0
 14 15  2  0  0  0  0
 14 24  1  0  0  0  0
 15 31  1  0  0  0  0
 16 32  1  0  0  0  0
 16 33  1  0  0  0  0
 16 34  1  0  0  0  0
M  CHG  1  16   1
M  END
$$$$
