T76
 OpenBabel04041915583D

 68 71  0  0  1  0  0  0  0  0999 V2000
   13.3102  -11.3350   21.9446 C   0  0  0  0  0  0  0  0  0  0  0  0
   12.5780  -12.4590   22.3650 C   0  0  0  0  0  0  0  0  0  0  0  0
   11.6454  -12.3602   23.3951 C   0  0  0  0  0  0  0  0  0  0  0  0
   11.5009  -11.1832   24.1056 C   0  0  0  0  0  0  0  0  0  0  0  0
   12.3013  -10.0950   23.7845 C   0  0  0  0  0  0  0  0  0  0  0  0
   13.1790  -10.1502   22.6925 C   0  0  0  0  0  0  0  0  0  0  0  0
   14.1475  -11.3655   20.6797 C   0  0  0  0  0  0  0  0  0  0  0  0
   15.5612  -11.5097   20.9026 N   0  0  0  0  0  0  0  0  0  0  0  0
   16.1847  -12.7309   20.6562 C   0  0  0  0  0  0  0  0  0  0  0  0
   17.6955  -12.7341   20.8947 C   0  0  2  0  0  0  0  0  0  0  0  0
   15.5736  -13.7219   20.2538 O   0  0  0  0  0  0  0  0  0  0  0  0
   12.8395  -13.6405   21.7148 O   0  0  0  0  0  0  0  0  0  0  0  0
   18.4457  -12.8392   19.5563 C   0  0  0  0  0  0  0  0  0  0  0  0
   19.7424  -13.5493   19.9232 C   0  0  0  0  0  0  0  0  0  0  0  0
   19.2712  -14.5694   20.9358 C   0  0  0  0  0  0  0  0  0  0  0  0
   18.1201  -13.9484   21.5811 N   0  0  0  0  0  0  0  0  0  0  0  0
   17.4423  -14.4233   22.6831 C   0  0  0  0  0  0  0  0  0  0  0  0
   17.9557  -15.7465   23.2705 C   0  0  2  0  0  0  0  0  0  0  0  0
   16.8638  -16.7003   23.2773 N   0  0  0  0  0  0  0  0  0  0  0  0
   16.6035  -17.4069   22.1308 C   0  0  0  0  0  0  0  0  0  0  0  0
   17.4104  -17.5131   21.2084 O   0  0  0  0  0  0  0  0  0  0  0  0
   15.2270  -17.9948   22.0542 C   0  0  0  0  0  0  0  0  0  0  0  0
   14.5035  -17.3237   20.8969 C   0  0  0  0  0  0  0  0  0  0  0  0
   13.9226  -16.0674   21.2902 N   0  0  0  0  0  0  0  0  0  0  0  0
   12.6750  -16.0640   21.8494 C   0  0  0  0  0  0  0  0  0  0  0  0
   12.0264  -17.0890   22.0638 O   0  0  0  0  0  0  0  0  0  0  0  0
   12.1569  -14.7430   22.2861 C   0  0  0  0  0  0  0  0  0  0  0  0
   16.4744  -13.8335   23.1748 O   0  0  0  0  0  0  0  0  0  0  0  0
   18.5208  -15.4537   24.6597 C   0  0  0  0  0  0  0  0  0  0  0  0
   18.8026  -16.7520   25.4230 C   0  0  0  0  0  0  0  0  0  0  0  0
   19.4140  -16.4543   26.7842 C   0  0  0  0  0  0  0  0  0  0  0  0
   20.6934  -15.6389   26.6372 C   0  0  0  0  0  0  0  0  0  0  0  0
   20.4259  -14.3382   25.8904 C   0  0  0  0  0  0  0  0  0  0  0  0
   19.8071  -14.6173   24.5317 C   0  0  0  0  0  0  0  0  0  0  0  0
   12.1895   -8.6802   24.7444 Cl  0  0  0  0  0  0  0  0  0  0  0  0
   11.0084  -13.1887   23.6964 H   0  0  0  0  0  0  0  0  0  0  0  0
   10.7754  -11.1473   24.9188 H   0  0  0  0  0  0  0  0  0  0  0  0
   13.7512   -9.2726   22.4240 H   0  0  0  0  0  0  0  0  0  0  0  0
   13.9953  -10.4560   20.1264 H   0  0  0  0  0  0  0  0  0  0  0  0
   13.7990  -12.1815   20.0312 H   0  0  0  0  0  0  0  0  0  0  0  0
   16.0756  -10.7639   21.3454 H   0  0  0  0  0  0  0  0  0  0  0  0
   18.0287  -11.8654   21.4734 H   0  0  0  0  0  0  0  0  0  0  0  0
   18.6163  -11.8687   19.0852 H   0  0  0  0  0  0  0  0  0  0  0  0
   17.8864  -13.4673   18.8526 H   0  0  0  0  0  0  0  0  0  0  0  0
   20.4439  -12.8489   20.3911 H   0  0  0  0  0  0  0  0  0  0  0  0
   20.2402  -14.0167   19.0692 H   0  0  0  0  0  0  0  0  0  0  0  0
   20.0522  -14.8005   21.6662 H   0  0  0  0  0  0  0  0  0  0  0  0
   18.9483  -15.4954   20.4500 H   0  0  0  0  0  0  0  0  0  0  0  0
   18.7403  -16.1748   22.6457 H   0  0  0  0  0  0  0  0  0  0  0  0
   16.2012  -16.6871   24.0427 H   0  0  0  0  0  0  0  0  0  0  0  0
   14.6918  -17.8680   23.0021 H   0  0  0  0  0  0  0  0  0  0  0  0
   15.3350  -19.0677   21.8679 H   0  0  0  0  0  0  0  0  0  0  0  0
   13.6853  -17.9722   20.5711 H   0  0  0  0  0  0  0  0  0  0  0  0
   15.1480  -17.1425   20.0314 H   0  0  0  0  0  0  0  0  0  0  0  0
   14.4252  -15.1786   21.1517 H   0  0  0  0  0  0  0  0  0  0  0  0
   11.1064  -14.6782   21.9992 H   0  0  0  0  0  0  0  0  0  0  0  0
   12.2815  -14.7563   23.3832 H   0  0  0  0  0  0  0  0  0  0  0  0
   17.7882  -14.8701   25.2329 H   0  0  0  0  0  0  0  0  0  0  0  0
   19.4829  -17.3859   24.8402 H   0  0  0  0  0  0  0  0  0  0  0  0
   17.8754  -17.3172   25.5646 H   0  0  0  0  0  0  0  0  0  0  0  0
   19.6234  -17.3931   27.3057 H   0  0  0  0  0  0  0  0  0  0  0  0
   18.6903  -15.8970   27.3925 H   0  0  0  0  0  0  0  0  0  0  0  0
   21.4374  -16.2283   26.0860 H   0  0  0  0  0  0  0  0  0  0  0  0
   21.1128  -15.4207   27.6233 H   0  0  0  0  0  0  0  0  0  0  0  0
   21.3590  -13.7793   25.7620 H   0  0  0  0  0  0  0  0  0  0  0  0
   19.7445  -13.7078   26.4744 H   0  0  0  0  0  0  0  0  0  0  0  0
   19.6008  -13.6634   24.0322 H   0  0  0  0  0  0  0  0  0  0  0  0
   20.5379  -15.1529   23.9100 H   0  0  0  0  0  0  0  0  0  0  0  0
  1  2  2  0  0  0  0
  1  6  1  0  0  0  0
  1  7  1  0  0  0  0
  2  3  1  0  0  0  0
  2 12  1  0  0  0  0
  3  4  2  0  0  0  0
  3 36  1  0  0  0  0
  4  5  1  0  0  0  0
  4 37  1  0  0  0  0
  5  6  2  0  0  0  0
  5 35  1  0  0  0  0
  6 38  1  0  0  0  0
  7  8  1  0  0  0  0
  7 39  1  0  0  0  0
  7 40  1  0  0  0  0
  8  9  1  0  0  0  0
  8 41  1  0  0  0  0
  9 10  1  0  0  0  0
  9 11  2  0  0  0  0
 10 13  1  0  0  0  0
 10 16  1  0  0  0  0
 10 42  1  1  0  0  0
 12 27  1  0  0  0  0
 13 14  1  0  0  0  0
 13 43  1  0  0  0  0
 13 44  1  0  0  0  0
 14 15  1  0  0  0  0
 14 45  1  0  0  0  0
 14 46  1  0  0  0  0
 15 16  1  0  0  0  0
 15 47  1  0  0  0  0
 15 48  1  0  0  0  0
 16 17  1  0  0  0  0
 17 18  1  0  0  0  0
 17 28  2  0  0  0  0
 18 19  1  0  0  0  0
 18 29  1  0  0  0  0
 18 49  1  6  0  0  0
 19 20  1  0  0  0  0
 19 50  1  0  0  0  0
 20 21  2  0  0  0  0
 20 22  1  0  0  0  0
 22 23  1  0  0  0  0
 22 51  1  0  0  0  0
 22 52  1  0  0  0  0
 23 24  1  0  0  0  0
 23 53  1  0  0  0  0
 23 54  1  0  0  0  0
 24 25  1  0  0  0  0
 24 55  1  0  0  0  0
 25 26  2  0  0  0  0
 25 27  1  0  0  0  0
 27 56  1  0  0  0  0
 27 57  1  0  0  0  0
 29 30  1  0  0  0  0
 29 34  1  0  0  0  0
 29 58  1  0  0  0  0
 30 31  1  0  0  0  0
 30 59  1  0  0  0  0
 30 60  1  0  0  0  0
 31 32  1  0  0  0  0
 31 61  1  0  0  0  0
 31 62  1  0  0  0  0
 32 33  1  0  0  0  0
 32 63  1  0  0  0  0
 32 64  1  0  0  0  0
 33 34  1  0  0  0  0
 33 65  1  0  0  0  0
 33 66  1  0  0  0  0
 34 67  1  0  0  0  0
 34 68  1  0  0  0  0
M  END
$$$$
