TBN
 OpenBabel04041916233D

 33 35  0  0  1  0  0  0  0  0999 V2000
   93.1524   65.2985   16.9941 O   0  0  0  0  0  0  0  0  0  0  0  0
   92.9378   64.2552   17.9367 C   0  0  0  0  0  0  0  0  0  0  0  0
   93.3293   64.6258   19.3785 C   0  0  1  0  0  0  0  0  0  0  0  0
   93.0169   65.9993   19.6458 O   0  0  0  0  0  0  0  0  0  0  0  0
   91.8462   66.0639   20.4691 C   0  0  1  0  0  0  0  0  0  0  0  0
   90.8052   66.7589   19.7041 N   0  3  0  0  0  0  0  0  0  0  0  0
   90.7817   68.1407   19.6172 C   0  0  0  0  0  0  0  0  0  0  0  0
   89.7271   68.5109   18.8211 C   0  0  0  0  0  0  0  0  0  0  0  0
   89.0751   67.3271   18.4084 C   0  0  0  0  0  0  0  0  0  0  0  0
   87.9607   67.0480   17.6080 C   0  0  0  0  0  0  0  0  0  0  0  0
   87.6002   65.7698   17.4139 N   0  0  0  0  0  0  0  0  0  0  0  0
   88.3576   64.8104   17.9959 C   0  0  0  0  0  0  0  0  0  0  0  0
   89.4483   64.9466   18.7940 N   0  0  0  0  0  0  0  0  0  0  0  0
   89.7693   66.2423   18.9643 C   0  0  0  0  0  0  0  0  0  0  0  0
   87.1975   68.0487   17.0461 N   0  0  0  0  0  0  0  0  0  0  0  0
   91.5729   64.6812   21.0670 C   0  0  2  0  0  0  0  0  0  0  0  0
   91.7608   64.7208   22.4950 O   0  0  0  0  0  0  0  0  0  0  0  0
   92.5757   63.7478   20.3829 C   0  0  2  0  0  0  0  0  0  0  0  0
   93.4938   63.1385   21.2977 O   0  0  0  0  0  0  0  0  0  0  0  0
   94.0414   65.6622   17.1403 H   0  0  0  0  0  0  0  0  0  0  0  0
   93.5197   63.3851   17.6136 H   0  0  0  0  0  0  0  0  0  0  0  0
   91.8817   63.9799   17.8756 H   0  0  0  0  0  0  0  0  0  0  0  0
   94.4182   64.5273   19.4822 H   0  0  0  0  0  0  0  0  0  0  0  0
   92.0839   66.7544   21.2913 H   0  0  0  0  0  0  0  0  0  0  0  0
   91.5399   68.7442   20.1165 H   0  0  0  0  0  0  0  0  0  0  0  0
   89.4494   69.5183   18.5562 H   0  0  0  0  0  0  0  0  0  0  0  0
   88.0257   63.7924   17.8137 H   0  0  0  0  0  0  0  0  0  0  0  0
   86.4702   67.7802   16.4023 H   0  0  0  0  0  0  0  0  0  0  0  0
   87.5150   69.0069   17.0867 H   0  0  0  0  0  0  0  0  0  0  0  0
   90.5461   64.3410   20.9152 H   0  0  0  0  0  0  0  0  0  0  0  0
   91.6389   63.8246   22.8474 H   0  0  0  0  0  0  0  0  0  0  0  0
   92.0622   62.9236   19.8764 H   0  0  0  0  0  0  0  0  0  0  0  0
   92.9980   62.5246   21.8636 H   0  0  0  0  0  0  0  0  0  0  0  0
  1  2  1  0  0  0  0
  1 20  1  0  0  0  0
  2  3  1  0  0  0  0
  2 21  1  0  0  0  0
  2 22  1  0  0  0  0
  3  4  1  0  0  0  0
  3 18  1  0  0  0  0
  3 23  1  1  0  0  0
  4  5  1  0  0  0  0
  5  6  1  0  0  0  0
  5 16  1  0  0  0  0
  5 24  1  1  0  0  0
  6  7  1  0  0  0  0
  6 14  2  0  0  0  0
  7  8  2  0  0  0  0
  7 25  1  0  0  0  0
  8  9  1  0  0  0  0
  8 26  1  0  0  0  0
  9 10  2  0  0  0  0
  9 14  1  0  0  0  0
 10 11  1  0  0  0  0
 10 15  1  0  0  0  0
 11 12  1  0  0  0  0
 12 13  2  0  0  0  0
 12 27  1  0  0  0  0
 13 14  1  0  0  0  0
 15 28  1  0  0  0  0
 15 29  1  0  0  0  0
 16 17  1  0  0  0  0
 16 18  1  0  0  0  0
 16 30  1  6  0  0  0
 17 31  1  0  0  0  0
 18 19  1  0  0  0  0
 18 32  1  6  0  0  0
 19 33  1  0  0  0  0
M  CHG  1   6   1
M  END
$$$$
