TDP
 OpenBabel04041916133D

 42 43  0  0  0  0  0  0  0  0999 V2000
   76.9630    0.5622   11.3607 N   0  0  0  0  0  0  0  0  0  0  0  0
   77.1624    1.8018   11.8433 C   0  0  0  0  0  0  0  0  0  0  0  0
   77.2708    1.9616   13.3351 C   0  0  0  0  0  0  0  0  0  0  0  0
   77.2930    2.8914   11.0596 N   0  0  0  0  0  0  0  0  0  0  0  0
   77.1605    2.7376    9.7274 C   0  0  0  0  0  0  0  0  0  0  0  0
   77.3831    3.8643    9.0057 N   0  0  0  0  0  0  0  0  0  0  0  0
   76.9223    1.5049    9.1506 C   0  0  0  0  0  0  0  0  0  0  0  0
   76.8360    0.4581   10.0211 C   0  0  0  0  0  0  0  0  0  0  0  0
   76.7708    1.2878    7.6497 C   0  0  0  0  0  0  0  0  0  0  0  0
   75.5236    1.8531    7.1320 N   0  3  0  0  0  0  0  0  0  0  0  0
   75.5140    3.0462    6.5522 C   0  0  0  0  0  0  0  0  0  0  0  0
   73.9638    3.5154    6.0646 S   0  0  0  0  0  0  0  0  0  0  0  0
   73.2869    2.0405    6.6213 C   0  0  0  0  0  0  0  0  0  0  0  0
   74.2731    1.2153    7.1427 C   0  0  0  0  0  0  0  0  0  0  0  0
   74.1091   -0.1724    7.6667 C   0  0  0  0  0  0  0  0  0  0  0  0
   71.8070    1.8412    6.4617 C   0  0  0  0  0  0  0  0  0  0  0  0
   70.9917    2.7726    7.3627 C   0  0  0  0  0  0  0  0  0  0  0  0
   69.6263    2.5581    7.0927 O   0  0  0  0  0  0  0  0  0  0  0  0
   68.5426    3.6337    7.6789 P   0  0  2  0  0  0  0  0  0  0  0  0
   68.6536    4.8807    6.6834 O   0  0  0  0  0  0  0  0  0  0  0  0
   69.0900    4.0342    9.0524 O   0  0  0  0  0  0  0  0  0  0  0  0
   67.1925    2.9474    7.6828 O   0  0  0  0  0  0  0  0  0  0  0  0
   68.4526    5.1029    5.0956 P   0  0  0  0  0  0  0  0  0  0  0  0
   68.0344    6.5704    4.9643 O   0  0  0  0  0  0  0  0  0  0  0  0
   69.8359    4.8418    4.4870 O   0  0  0  0  0  0  0  0  0  0  0  0
   67.3862    4.1368    4.6077 O   0  0  0  0  0  0  0  0  0  0  0  0
   77.1443    0.9952   13.8299 H   0  0  0  0  0  0  0  0  0  0  0  0
   76.4961    2.6370   13.7117 H   0  0  0  0  0  0  0  0  0  0  0  0
   78.2530    2.3576   13.6110 H   0  0  0  0  0  0  0  0  0  0  0  0
   77.3326    3.9526    8.0122 H   0  0  0  0  0  0  0  0  0  0  0  0
   77.4682    4.7331    9.5249 H   0  0  0  0  0  0  0  0  0  0  0  0
   76.6694   -0.5608    9.6974 H   0  0  0  0  0  0  0  0  0  0  0  0
   76.8220    0.2219    7.4009 H   0  0  0  0  0  0  0  0  0  0  0  0
   77.6407    1.7303    7.1376 H   0  0  0  0  0  0  0  0  0  0  0  0
   76.3495    3.7094    6.3848 H   0  0  0  0  0  0  0  0  0  0  0  0
   73.0683   -0.5076    7.5986 H   0  0  0  0  0  0  0  0  0  0  0  0
   74.3829   -0.2467    8.7215 H   0  0  0  0  0  0  0  0  0  0  0  0
   74.7006   -0.9002    7.0990 H   0  0  0  0  0  0  0  0  0  0  0  0
   71.5411    0.7979    6.6725 H   0  0  0  0  0  0  0  0  0  0  0  0
   71.5308    1.9943    5.4113 H   0  0  0  0  0  0  0  0  0  0  0  0
   71.2661    3.8200    7.2034 H   0  0  0  0  0  0  0  0  0  0  0  0
   71.1986    2.5238    8.4126 H   0  0  0  0  0  0  0  0  0  0  0  0
  1  2  2  0  0  0  0
  1  8  1  0  0  0  0
  2  3  1  0  0  0  0
  2  4  1  0  0  0  0
  3 27  1  0  0  0  0
  3 28  1  0  0  0  0
  3 29  1  0  0  0  0
  4  5  2  0  0  0  0
  5  6  1  0  0  0  0
  5  7  1  0  0  0  0
  6 30  1  0  0  0  0
  6 31  1  0  0  0  0
  7  8  2  0  0  0  0
  7  9  1  0  0  0  0
  8 32  1  0  0  0  0
  9 10  1  0  0  0  0
  9 33  1  0  0  0  0
  9 34  1  0  0  0  0
 10 11  2  0  0  0  0
 10 14  1  0  0  0  0
 11 12  1  0  0  0  0
 11 35  1  0  0  0  0
 12 13  1  0  0  0  0
 13 14  2  0  0  0  0
 13 16  1  0  0  0  0
 14 15  1  0  0  0  0
 15 36  1  0  0  0  0
 15 37  1  0  0  0  0
 15 38  1  0  0  0  0
 16 17  1  0  0  0  0
 16 39  1  0  0  0  0
 16 40  1  0  0  0  0
 17 18  1  0  0  0  0
 17 41  1  0  0  0  0
 17 42  1  0  0  0  0
 19 18  1  6  0  0  0
 19 20  1  0  0  0  0
 19 21  2  0  0  0  0
 19 22  1  0  0  0  0
 20 23  1  0  0  0  0
 23 24  2  0  0  0  0
 23 25  1  0  0  0  0
 23 26  1  0  0  0  0
M  CHG  1  10   1
M  END
$$$$
