TDP
 OpenBabel04041916133D

 42 43  0  0  0  0  0  0  0  0999 V2000
   77.0890    0.4961   11.4003 N   0  0  0  0  0  0  0  0  0  0  0  0
   77.3508    1.7291   11.8642 C   0  0  0  0  0  0  0  0  0  0  0  0
   77.4873    1.8956   13.3487 C   0  0  0  0  0  0  0  0  0  0  0  0
   77.5396    2.8019   11.0784 N   0  0  0  0  0  0  0  0  0  0  0  0
   77.4273    2.6526    9.7461 C   0  0  0  0  0  0  0  0  0  0  0  0
   77.8594    3.7408    9.0199 N   0  0  0  0  0  0  0  0  0  0  0  0
   77.1006    1.4396    9.1761 C   0  0  0  0  0  0  0  0  0  0  0  0
   76.9630    0.3852   10.0596 C   0  0  0  0  0  0  0  0  0  0  0  0
   76.9344    1.2089    7.7060 C   0  0  0  0  0  0  0  0  0  0  0  0
   75.6867    1.7820    7.1659 N   0  3  0  0  0  0  0  0  0  0  0  0
   75.7039    2.9231    6.5159 C   0  0  0  0  0  0  0  0  0  0  0  0
   74.1695    3.3845    5.9691 S   0  0  0  0  0  0  0  0  0  0  0  0
   73.4534    1.9659    6.6268 C   0  0  0  0  0  0  0  0  0  0  0  0
   74.4272    1.1630    7.2032 C   0  0  0  0  0  0  0  0  0  0  0  0
   74.2774   -0.1981    7.7713 C   0  0  0  0  0  0  0  0  0  0  0  0
   71.9668    1.7750    6.4707 C   0  0  0  0  0  0  0  0  0  0  0  0
   71.1682    2.7908    7.2768 C   0  0  0  0  0  0  0  0  0  0  0  0
   69.8046    2.4386    7.1986 O   0  0  0  0  0  0  0  0  0  0  0  0
   68.7543    3.5292    7.8111 P   0  0  2  0  0  0  0  0  0  0  0  0
   68.7508    4.7098    6.7351 O   0  0  0  0  0  0  0  0  0  0  0  0
   69.4194    4.0254    9.0980 O   0  0  0  0  0  0  0  0  0  0  0  0
   67.4255    2.8247    7.9826 O   0  0  0  0  0  0  0  0  0  0  0  0
   68.7074    4.8991    5.1370 P   0  0  0  0  0  0  0  0  0  0  0  0
   68.2210    6.3357    4.9435 O   0  0  0  0  0  0  0  0  0  0  0  0
   70.1457    4.7022    4.6599 O   0  0  0  0  0  0  0  0  0  0  0  0
   67.7380    3.8646    4.5634 O   0  0  0  0  0  0  0  0  0  0  0  0
   77.3177    0.9465   13.8679 H   0  0  0  0  0  0  0  0  0  0  0  0
   76.7564    2.6219   13.7139 H   0  0  0  0  0  0  0  0  0  0  0  0
   78.4927    2.2461   13.5996 H   0  0  0  0  0  0  0  0  0  0  0  0
   77.4210    3.9938    8.1536 H   0  0  0  0  0  0  0  0  0  0  0  0
   77.8813    4.5464    9.6525 H   0  0  0  0  0  0  0  0  0  0  0  0
   76.7488   -0.6280    9.7359 H   0  0  0  0  0  0  0  0  0  0  0  0
   76.9782    0.1387    7.4562 H   0  0  0  0  0  0  0  0  0  0  0  0
   77.7939    1.6493    7.1662 H   0  0  0  0  0  0  0  0  0  0  0  0
   76.5804    3.5319    6.3105 H   0  0  0  0  0  0  0  0  0  0  0  0
   73.2491   -0.5627    7.7016 H   0  0  0  0  0  0  0  0  0  0  0  0
   74.5528   -0.2263    8.8281 H   0  0  0  0  0  0  0  0  0  0  0  0
   74.9043   -0.9149    7.2274 H   0  0  0  0  0  0  0  0  0  0  0  0
   71.6841    0.7613    6.7854 H   0  0  0  0  0  0  0  0  0  0  0  0
   71.6892    1.8326    5.4133 H   0  0  0  0  0  0  0  0  0  0  0  0
   71.3267    3.8090    6.9137 H   0  0  0  0  0  0  0  0  0  0  0  0
   71.4828    2.7506    8.3256 H   0  0  0  0  0  0  0  0  0  0  0  0
  1  2  2  0  0  0  0
  1  8  1  0  0  0  0
  2  3  1  0  0  0  0
  2  4  1  0  0  0  0
  3 27  1  0  0  0  0
  3 28  1  0  0  0  0
  3 29  1  0  0  0  0
  4  5  2  0  0  0  0
  5  6  1  0  0  0  0
  5  7  1  0  0  0  0
  6 30  1  0  0  0  0
  6 31  1  0  0  0  0
  7  8  2  0  0  0  0
  7  9  1  0  0  0  0
  8 32  1  0  0  0  0
  9 10  1  0  0  0  0
  9 33  1  0  0  0  0
  9 34  1  0  0  0  0
 10 11  2  0  0  0  0
 10 14  1  0  0  0  0
 11 12  1  0  0  0  0
 11 35  1  0  0  0  0
 12 13  1  0  0  0  0
 13 14  2  0  0  0  0
 13 16  1  0  0  0  0
 14 15  1  0  0  0  0
 15 36  1  0  0  0  0
 15 37  1  0  0  0  0
 15 38  1  0  0  0  0
 16 17  1  0  0  0  0
 16 39  1  0  0  0  0
 16 40  1  0  0  0  0
 17 18  1  0  0  0  0
 17 41  1  0  0  0  0
 17 42  1  0  0  0  0
 19 18  1  6  0  0  0
 19 20  1  0  0  0  0
 19 21  2  0  0  0  0
 19 22  1  0  0  0  0
 20 23  1  0  0  0  0
 23 24  2  0  0  0  0
 23 25  1  0  0  0  0
 23 26  1  0  0  0  0
M  CHG  1  10   1
M  END
$$$$
