TDP
 OpenBabel04041917143D

 42 43  0  0  0  0  0  0  0  0999 V2000
   77.0923    0.6193   11.1941 N   0  0  0  0  0  0  0  0  0  0  0  0
   77.3262    1.8438   11.7049 C   0  0  0  0  0  0  0  0  0  0  0  0
   77.4541    1.9776   13.1971 C   0  0  0  0  0  0  0  0  0  0  0  0
   77.4910    2.9460   10.9431 N   0  0  0  0  0  0  0  0  0  0  0  0
   77.3643    2.8339    9.6211 C   0  0  0  0  0  0  0  0  0  0  0  0
   77.7577    3.9580    8.9102 N   0  0  0  0  0  0  0  0  0  0  0  0
   77.0867    1.6190    8.9983 C   0  0  0  0  0  0  0  0  0  0  0  0
   76.9666    0.5460    9.8651 C   0  0  0  0  0  0  0  0  0  0  0  0
   76.9218    1.4461    7.5225 C   0  0  0  0  0  0  0  0  0  0  0  0
   75.6519    2.0216    7.0008 N   0  3  0  0  0  0  0  0  0  0  0  0
   75.6615    3.1593    6.3370 C   0  0  0  0  0  0  0  0  0  0  0  0
   74.0996    3.6126    5.8451 S   0  0  0  0  0  0  0  0  0  0  0  0
   73.4090    2.1889    6.5188 C   0  0  0  0  0  0  0  0  0  0  0  0
   74.4028    1.4009    7.0699 C   0  0  0  0  0  0  0  0  0  0  0  0
   74.2619    0.0448    7.6525 C   0  0  0  0  0  0  0  0  0  0  0  0
   71.9230    1.9560    6.3992 C   0  0  0  0  0  0  0  0  0  0  0  0
   71.0960    2.9421    7.2109 C   0  0  0  0  0  0  0  0  0  0  0  0
   69.7317    2.5954    7.0787 O   0  0  0  0  0  0  0  0  0  0  0  0
   68.6527    3.6604    7.6901 P   0  0  2  0  0  0  0  0  0  0  0  0
   68.6976    4.8877    6.6715 O   0  0  0  0  0  0  0  0  0  0  0  0
   69.2678    4.0963    9.0257 O   0  0  0  0  0  0  0  0  0  0  0  0
   67.3206    2.9482    7.7820 O   0  0  0  0  0  0  0  0  0  0  0  0
   68.5864    5.0929    5.0725 P   0  0  0  0  0  0  0  0  0  0  0  0
   69.9891    4.7907    4.5315 O   0  0  0  0  0  0  0  0  0  0  0  0
   67.5163    4.1572    4.5495 O   0  0  0  0  0  0  0  0  0  0  0  0
   68.2193    6.5729    4.9105 O   0  0  0  0  0  0  0  0  0  0  0  0
   77.3623    1.0045   13.6813 H   0  0  0  0  0  0  0  0  0  0  0  0
   76.6532    2.6286   13.5611 H   0  0  0  0  0  0  0  0  0  0  0  0
   78.4115    2.4208   13.4554 H   0  0  0  0  0  0  0  0  0  0  0  0
   77.3439    4.1958    8.0298 H   0  0  0  0  0  0  0  0  0  0  0  0
   77.7482    4.7544    9.5506 H   0  0  0  0  0  0  0  0  0  0  0  0
   76.7660   -0.4627    9.5064 H   0  0  0  0  0  0  0  0  0  0  0  0
   76.9659    0.3853    7.2441 H   0  0  0  0  0  0  0  0  0  0  0  0
   77.7725    1.9090    7.0050 H   0  0  0  0  0  0  0  0  0  0  0  0
   76.5283    3.7563    6.1028 H   0  0  0  0  0  0  0  0  0  0  0  0
   73.2395   -0.3271    7.5778 H   0  0  0  0  0  0  0  0  0  0  0  0
   74.5279    0.0385    8.7079 H   0  0  0  0  0  0  0  0  0  0  0  0
   74.8965   -0.6744    7.1172 H   0  0  0  0  0  0  0  0  0  0  0  0
   71.6778    0.9426    6.7312 H   0  0  0  0  0  0  0  0  0  0  0  0
   71.6185    1.9840    5.3448 H   0  0  0  0  0  0  0  0  0  0  0  0
   71.2730    3.9754    6.9018 H   0  0  0  0  0  0  0  0  0  0  0  0
   71.3746    2.8531    8.2734 H   0  0  0  0  0  0  0  0  0  0  0  0
  1  2  2  0  0  0  0
  1  8  1  0  0  0  0
  2  3  1  0  0  0  0
  2  4  1  0  0  0  0
  3 27  1  0  0  0  0
  3 28  1  0  0  0  0
  3 29  1  0  0  0  0
  4  5  2  0  0  0  0
  5  6  1  0  0  0  0
  5  7  1  0  0  0  0
  6 30  1  0  0  0  0
  6 31  1  0  0  0  0
  7  8  2  0  0  0  0
  7  9  1  0  0  0  0
  8 32  1  0  0  0  0
  9 10  1  0  0  0  0
  9 33  1  0  0  0  0
  9 34  1  0  0  0  0
 10 11  2  0  0  0  0
 10 14  1  0  0  0  0
 11 12  1  0  0  0  0
 11 35  1  0  0  0  0
 12 13  1  0  0  0  0
 13 14  2  0  0  0  0
 13 16  1  0  0  0  0
 14 15  1  0  0  0  0
 15 36  1  0  0  0  0
 15 37  1  0  0  0  0
 15 38  1  0  0  0  0
 16 17  1  0  0  0  0
 16 39  1  0  0  0  0
 16 40  1  0  0  0  0
 17 18  1  0  0  0  0
 17 41  1  0  0  0  0
 17 42  1  0  0  0  0
 19 18  1  6  0  0  0
 19 20  1  0  0  0  0
 19 21  2  0  0  0  0
 19 22  1  0  0  0  0
 20 23  1  0  0  0  0
 23 24  2  0  0  0  0
 23 25  1  0  0  0  0
 23 26  1  0  0  0  0
M  CHG  1  10   1
M  END
$$$$
