TDP
 OpenBabel04041916133D

 42 43  0  0  0  0  0  0  0  0999 V2000
   77.2051    0.5302   11.6411 N   0  0  0  0  0  0  0  0  0  0  0  0
   77.4541    1.7450   12.1342 C   0  0  0  0  0  0  0  0  0  0  0  0
   77.5520    1.8739   13.6311 C   0  0  0  0  0  0  0  0  0  0  0  0
   77.6374    2.8349   11.3650 N   0  0  0  0  0  0  0  0  0  0  0  0
   77.5220    2.6906   10.0281 C   0  0  0  0  0  0  0  0  0  0  0  0
   77.7802    3.8255    9.2974 N   0  0  0  0  0  0  0  0  0  0  0  0
   77.2321    1.4825    9.4191 C   0  0  0  0  0  0  0  0  0  0  0  0
   77.0959    0.4228   10.3028 C   0  0  0  0  0  0  0  0  0  0  0  0
   77.1107    1.2672    7.9335 C   0  0  0  0  0  0  0  0  0  0  0  0
   75.8821    1.8555    7.3753 N   0  3  0  0  0  0  0  0  0  0  0  0
   75.9292    3.0312    6.7590 C   0  0  0  0  0  0  0  0  0  0  0  0
   74.4105    3.5309    6.2038 S   0  0  0  0  0  0  0  0  0  0  0  0
   73.6649    2.0934    6.7836 C   0  0  0  0  0  0  0  0  0  0  0  0
   74.5997    1.2623    7.3701 C   0  0  0  0  0  0  0  0  0  0  0  0
   74.3574   -0.1004    7.9440 C   0  0  0  0  0  0  0  0  0  0  0  0
   72.1828    1.9487    6.5796 C   0  0  0  0  0  0  0  0  0  0  0  0
   71.3748    2.7919    7.5645 C   0  0  0  0  0  0  0  0  0  0  0  0
   70.0190    2.6289    7.2198 O   0  0  0  0  0  0  0  0  0  0  0  0
   68.9064    3.6726    7.7971 P   0  0  2  0  0  0  0  0  0  0  0  0
   69.0220    4.9459    6.8268 O   0  0  0  0  0  0  0  0  0  0  0  0
   69.4134    4.0710    9.1860 O   0  0  0  0  0  0  0  0  0  0  0  0
   67.5765    2.9542    7.7542 O   0  0  0  0  0  0  0  0  0  0  0  0
   68.7924    5.2450    5.2522 P   0  0  0  0  0  0  0  0  0  0  0  0
   68.3119    6.6903    5.2093 O   0  0  0  0  0  0  0  0  0  0  0  0
   70.1973    5.0857    4.6408 O   0  0  0  0  0  0  0  0  0  0  0  0
   67.7907    4.2558    4.7167 O   0  0  0  0  0  0  0  0  0  0  0  0
   77.3846    0.8995   14.1070 H   0  0  0  0  0  0  0  0  0  0  0  0
   76.7998    2.5671   14.0258 H   0  0  0  0  0  0  0  0  0  0  0  0
   78.5450    2.2226   13.9377 H   0  0  0  0  0  0  0  0  0  0  0  0
   77.7226    3.9086    8.3070 H   0  0  0  0  0  0  0  0  0  0  0  0
   77.9127    4.6803    9.8257 H   0  0  0  0  0  0  0  0  0  0  0  0
   76.8933   -0.5844    9.9651 H   0  0  0  0  0  0  0  0  0  0  0  0
   77.1399    0.2048    7.6735 H   0  0  0  0  0  0  0  0  0  0  0  0
   77.9915    1.6999    7.4301 H   0  0  0  0  0  0  0  0  0  0  0  0
   76.7915    3.6575    6.5831 H   0  0  0  0  0  0  0  0  0  0  0  0
   73.3042   -0.3873    7.8588 H   0  0  0  0  0  0  0  0  0  0  0  0
   74.5958   -0.1393    9.0075 H   0  0  0  0  0  0  0  0  0  0  0  0
   74.9281   -0.8773    7.4245 H   0  0  0  0  0  0  0  0  0  0  0  0
   71.8872    0.8944    6.6597 H   0  0  0  0  0  0  0  0  0  0  0  0
   71.9206    2.2318    5.5533 H   0  0  0  0  0  0  0  0  0  0  0  0
   71.6758    3.8449    7.5322 H   0  0  0  0  0  0  0  0  0  0  0  0
   71.5376    2.4178    8.5818 H   0  0  0  0  0  0  0  0  0  0  0  0
  1  2  2  0  0  0  0
  1  8  1  0  0  0  0
  2  3  1  0  0  0  0
  2  4  1  0  0  0  0
  3 27  1  0  0  0  0
  3 28  1  0  0  0  0
  3 29  1  0  0  0  0
  4  5  2  0  0  0  0
  5  6  1  0  0  0  0
  5  7  1  0  0  0  0
  6 30  1  0  0  0  0
  6 31  1  0  0  0  0
  7  8  2  0  0  0  0
  7  9  1  0  0  0  0
  8 32  1  0  0  0  0
  9 10  1  0  0  0  0
  9 33  1  0  0  0  0
  9 34  1  0  0  0  0
 10 11  2  0  0  0  0
 10 14  1  0  0  0  0
 11 12  1  0  0  0  0
 11 35  1  0  0  0  0
 12 13  1  0  0  0  0
 13 14  2  0  0  0  0
 13 16  1  0  0  0  0
 14 15  1  0  0  0  0
 15 36  1  0  0  0  0
 15 37  1  0  0  0  0
 15 38  1  0  0  0  0
 16 17  1  0  0  0  0
 16 39  1  0  0  0  0
 16 40  1  0  0  0  0
 17 18  1  0  0  0  0
 17 41  1  0  0  0  0
 17 42  1  0  0  0  0
 19 18  1  6  0  0  0
 19 20  1  0  0  0  0
 19 21  2  0  0  0  0
 19 22  1  0  0  0  0
 20 23  1  0  0  0  0
 23 24  2  0  0  0  0
 23 25  1  0  0  0  0
 23 26  1  0  0  0  0
M  CHG  1  10   1
M  END
$$$$
