TDP
 OpenBabel04041917153D

 42 43  0  0  0  0  0  0  0  0999 V2000
   77.0391    0.6370   11.1709 N   0  0  0  0  0  0  0  0  0  0  0  0
   77.2757    1.8456   11.6860 C   0  0  0  0  0  0  0  0  0  0  0  0
   77.4237    1.9927   13.1758 C   0  0  0  0  0  0  0  0  0  0  0  0
   77.4086    2.9539   10.9166 N   0  0  0  0  0  0  0  0  0  0  0  0
   77.2709    2.8304    9.5867 C   0  0  0  0  0  0  0  0  0  0  0  0
   77.5291    3.9892    8.8846 N   0  0  0  0  0  0  0  0  0  0  0  0
   77.0053    1.6276    8.9696 C   0  0  0  0  0  0  0  0  0  0  0  0
   76.9067    0.5477    9.8463 C   0  0  0  0  0  0  0  0  0  0  0  0
   76.8585    1.4419    7.4851 C   0  0  0  0  0  0  0  0  0  0  0  0
   75.6039    2.0196    6.9656 N   0  3  0  0  0  0  0  0  0  0  0  0
   75.5976    3.1612    6.3030 C   0  0  0  0  0  0  0  0  0  0  0  0
   74.0253    3.6258    5.8435 S   0  0  0  0  0  0  0  0  0  0  0  0
   73.3447    2.1928    6.5044 C   0  0  0  0  0  0  0  0  0  0  0  0
   74.3522    1.3986    7.0349 C   0  0  0  0  0  0  0  0  0  0  0  0
   74.2374    0.0345    7.6051 C   0  0  0  0  0  0  0  0  0  0  0  0
   71.8566    1.9615    6.4026 C   0  0  0  0  0  0  0  0  0  0  0  0
   71.0419    2.9657    7.2165 C   0  0  0  0  0  0  0  0  0  0  0  0
   69.6746    2.6412    7.0883 O   0  0  0  0  0  0  0  0  0  0  0  0
   68.6018    3.7210    7.6881 P   0  0  2  0  0  0  0  0  0  0  0  0
   68.6990    4.9557    6.6812 O   0  0  0  0  0  0  0  0  0  0  0  0
   69.1870    4.1318    9.0444 O   0  0  0  0  0  0  0  0  0  0  0  0
   67.2472    3.0428    7.7371 O   0  0  0  0  0  0  0  0  0  0  0  0
   68.5494    5.1196    5.0805 P   0  0  0  0  0  0  0  0  0  0  0  0
   69.9332    4.7876    4.5151 O   0  0  0  0  0  0  0  0  0  0  0  0
   67.4535    4.1730    4.6170 O   0  0  0  0  0  0  0  0  0  0  0  0
   68.1859    6.5965    4.8828 O   0  0  0  0  0  0  0  0  0  0  0  0
   77.3501    1.0239   13.6827 H   0  0  0  0  0  0  0  0  0  0  0  0
   76.6405    2.6422   13.5783 H   0  0  0  0  0  0  0  0  0  0  0  0
   78.3964    2.4266   13.4286 H   0  0  0  0  0  0  0  0  0  0  0  0
   77.3943    4.1419    7.9100 H   0  0  0  0  0  0  0  0  0  0  0  0
   77.5745    4.8186    9.4701 H   0  0  0  0  0  0  0  0  0  0  0  0
   76.6946   -0.4526    9.4894 H   0  0  0  0  0  0  0  0  0  0  0  0
   76.8926    0.3801    7.2161 H   0  0  0  0  0  0  0  0  0  0  0  0
   77.7196    1.8851    6.9668 H   0  0  0  0  0  0  0  0  0  0  0  0
   76.4598    3.7729    6.0622 H   0  0  0  0  0  0  0  0  0  0  0  0
   73.2147   -0.3423    7.5556 H   0  0  0  0  0  0  0  0  0  0  0  0
   74.5312    0.0169    8.6561 H   0  0  0  0  0  0  0  0  0  0  0  0
   74.8650   -0.6740    7.0513 H   0  0  0  0  0  0  0  0  0  0  0  0
   71.6102    0.9478    6.7453 H   0  0  0  0  0  0  0  0  0  0  0  0
   71.5432    1.9855    5.3522 H   0  0  0  0  0  0  0  0  0  0  0  0
   71.2340    3.9917    6.8892 H   0  0  0  0  0  0  0  0  0  0  0  0
   71.3269    2.8844    8.2727 H   0  0  0  0  0  0  0  0  0  0  0  0
  1  2  2  0  0  0  0
  1  8  1  0  0  0  0
  2  3  1  0  0  0  0
  2  4  1  0  0  0  0
  3 27  1  0  0  0  0
  3 28  1  0  0  0  0
  3 29  1  0  0  0  0
  4  5  2  0  0  0  0
  5  6  1  0  0  0  0
  5  7  1  0  0  0  0
  6 30  1  0  0  0  0
  6 31  1  0  0  0  0
  7  8  2  0  0  0  0
  7  9  1  0  0  0  0
  8 32  1  0  0  0  0
  9 10  1  0  0  0  0
  9 33  1  0  0  0  0
  9 34  1  0  0  0  0
 10 11  2  0  0  0  0
 10 14  1  0  0  0  0
 11 12  1  0  0  0  0
 11 35  1  0  0  0  0
 12 13  1  0  0  0  0
 13 14  2  0  0  0  0
 13 16  1  0  0  0  0
 14 15  1  0  0  0  0
 15 36  1  0  0  0  0
 15 37  1  0  0  0  0
 15 38  1  0  0  0  0
 16 17  1  0  0  0  0
 16 39  1  0  0  0  0
 16 40  1  0  0  0  0
 17 18  1  0  0  0  0
 17 41  1  0  0  0  0
 17 42  1  0  0  0  0
 19 18  1  6  0  0  0
 19 20  1  0  0  0  0
 19 21  2  0  0  0  0
 19 22  1  0  0  0  0
 20 23  1  0  0  0  0
 23 24  2  0  0  0  0
 23 25  1  0  0  0  0
 23 26  1  0  0  0  0
M  CHG  1  10   1
M  END
$$$$
