THK
 OpenBabel04041913563D

 57 60  0  0  1  0  0  0  0  0999 V2000
   63.8368   38.1877    0.2054 N   0  3  1  0  0  0  0  0  0  0  0  0
   64.9801   37.9306    1.1520 C   0  0  0  0  0  0  0  0  0  0  0  0
   64.4836   37.5927    2.5368 C   0  0  0  0  0  0  0  0  0  0  0  0
   63.4862   38.6309    3.0514 C   0  0  1  0  0  0  0  0  0  0  0  0
   64.0997   39.9087    3.1121 O   0  0  0  0  0  0  0  0  0  0  0  0
   62.3027   38.6876    2.0937 C   0  0  0  0  0  0  0  0  0  0  0  0
   62.7611   39.1034    0.7212 C   0  0  0  0  0  0  0  0  0  0  0  0
   64.3114   38.7133   -1.1202 C   0  0  0  0  0  0  0  0  0  0  0  0
   65.1099   37.6881   -1.8927 C   0  0  0  0  0  0  0  0  0  0  0  0
   66.1984   38.4240   -2.6892 C   0  0  0  0  0  0  0  0  0  0  0  0
   66.5391   37.7778   -4.0450 C   0  0  0  0  0  0  0  0  0  0  0  0
   65.3294   37.8846   -4.9383 C   0  0  0  0  0  0  0  0  0  0  0  0
   64.9429   39.1392   -5.4340 C   0  0  0  0  0  0  0  0  0  0  0  0
   63.7747   39.2798   -6.1705 C   0  0  0  0  0  0  0  0  0  0  0  0
   62.9821   38.1653   -6.4078 C   0  0  0  0  0  0  0  0  0  0  0  0
   61.8323   38.2999   -7.0631 F   0  0  0  0  0  0  0  0  0  0  0  0
   63.3671   36.9078   -5.9527 C   0  0  0  0  0  0  0  0  0  0  0  0
   64.5402   36.7699   -5.2289 C   0  0  0  0  0  0  0  0  0  0  0  0
   63.1086   38.3309    4.4752 C   0  0  0  0  0  0  0  0  0  0  0  0
   64.1298   38.1274    5.4145 C   0  0  0  0  0  0  0  0  0  0  0  0
   63.8274   37.7654    6.7372 C   0  0  0  0  0  0  0  0  0  0  0  0
   62.5005   37.6328    7.1108 C   0  0  0  0  0  0  0  0  0  0  0  0
   62.1412   37.1087    8.7130 Cl  0  0  0  0  0  0  0  0  0  0  0  0
   61.4714   37.8951    6.2123 C   0  0  0  0  0  0  0  0  0  0  0  0
   61.7799   38.2600    4.8885 C   0  0  0  0  0  0  0  0  0  0  0  0
   67.0574   36.0605   -3.7348 S   0  0  0  0  0  0  0  0  0  0  0  0
   68.4098   36.0025   -4.9033 C   0  0  0  0  0  0  0  0  0  0  0  0
   68.8497   37.3495   -5.4283 C   0  0  0  0  0  0  0  0  0  0  0  0
   67.9222   38.7241   -4.7589 S   0  0  0  0  0  0  0  0  0  0  0  0
   65.6043   38.8291    1.1663 H   0  0  0  0  0  0  0  0  0  0  0  0
   65.5578   37.0944    0.7552 H   0  0  0  0  0  0  0  0  0  0  0  0
   65.3616   37.5518    3.1894 H   0  0  0  0  0  0  0  0  0  0  0  0
   64.0188   36.5991    2.5326 H   0  0  0  0  0  0  0  0  0  0  0  0
   64.3790   40.1785    2.2254 H   0  0  0  0  0  0  0  0  0  0  0  0
   61.5740   39.4323    2.4380 H   0  0  0  0  0  0  0  0  0  0  0  0
   61.8055   37.7107    2.0432 H   0  0  0  0  0  0  0  0  0  0  0  0
   61.9322   39.0682    0.0118 H   0  0  0  0  0  0  0  0  0  0  0  0
   63.1763   40.1158    0.7325 H   0  0  0  0  0  0  0  0  0  0  0  0
   64.9149   39.6022   -0.9058 H   0  0  0  0  0  0  0  0  0  0  0  0
   63.4240   39.0034   -1.6917 H   0  0  0  0  0  0  0  0  0  0  0  0
   64.4379   37.1418   -2.5610 H   0  0  0  0  0  0  0  0  0  0  0  0
   65.5797   36.9548   -1.2330 H   0  0  0  0  0  0  0  0  0  0  0  0
   67.1068   38.4616   -2.0752 H   0  0  0  0  0  0  0  0  0  0  0  0
   65.8666   39.4647   -2.8473 H   0  0  0  0  0  0  0  0  0  0  0  0
   65.5686   40.0128   -5.2516 H   0  0  0  0  0  0  0  0  0  0  0  0
   63.4886   40.2500   -6.5496 H   0  0  0  0  0  0  0  0  0  0  0  0
   62.7607   36.0376   -6.1589 H   0  0  0  0  0  0  0  0  0  0  0  0
   64.8308   35.7768   -4.8819 H   0  0  0  0  0  0  0  0  0  0  0  0
   65.1717   38.2424    5.1277 H   0  0  0  0  0  0  0  0  0  0  0  0
   64.6342   37.5815    7.4323 H   0  0  0  0  0  0  0  0  0  0  0  0
   60.4374   37.8136    6.5072 H   0  0  0  0  0  0  0  0  0  0  0  0
   60.9668   38.4744    4.1985 H   0  0  0  0  0  0  0  0  0  0  0  0
   68.1334   35.3619   -5.7444 H   0  0  0  0  0  0  0  0  0  0  0  0
   69.2383   35.5358   -4.3701 H   0  0  0  0  0  0  0  0  0  0  0  0
   68.7697   37.3607   -6.5201 H   0  0  0  0  0  0  0  0  0  0  0  0
   69.8977   37.5174   -5.1636 H   0  0  0  0  0  0  0  0  0  0  0  0
   63.3591   37.2554    0.0031 H   0  0  0  0  0  0  0  0  0  0  0  0
  1  2  1  0  0  0  0
  1  7  1  0  0  0  0
  1  8  1  0  0  0  0
  1 57  1  6  0  0  0
  2  3  1  0  0  0  0
  2 30  1  0  0  0  0
  2 31  1  0  0  0  0
  3  4  1  0  0  0  0
  3 32  1  0  0  0  0
  3 33  1  0  0  0  0
  4  5  1  6  0  0  0
  4  6  1  0  0  0  0
  4 19  1  0  0  0  0
  5 34  1  0  0  0  0
  6  7  1  0  0  0  0
  6 35  1  0  0  0  0
  6 36  1  0  0  0  0
  7 37  1  0  0  0  0
  7 38  1  0  0  0  0
  8  9  1  0  0  0  0
  8 39  1  0  0  0  0
  8 40  1  0  0  0  0
  9 10  1  0  0  0  0
  9 41  1  0  0  0  0
  9 42  1  0  0  0  0
 10 11  1  0  0  0  0
 10 43  1  0  0  0  0
 10 44  1  0  0  0  0
 11 12  1  0  0  0  0
 11 26  1  0  0  0  0
 11 29  1  0  0  0  0
 12 13  2  0  0  0  0
 12 18  1  0  0  0  0
 13 14  1  0  0  0  0
 13 45  1  0  0  0  0
 14 15  2  0  0  0  0
 14 46  1  0  0  0  0
 15 16  1  0  0  0  0
 15 17  1  0  0  0  0
 17 18  2  0  0  0  0
 17 47  1  0  0  0  0
 18 48  1  0  0  0  0
 19 20  2  0  0  0  0
 19 25  1  0  0  0  0
 20 21  1  0  0  0  0
 20 49  1  0  0  0  0
 21 22  2  0  0  0  0
 21 50  1  0  0  0  0
 22 23  1  0  0  0  0
 22 24  1  0  0  0  0
 24 25  2  0  0  0  0
 24 51  1  0  0  0  0
 25 52  1  0  0  0  0
 26 27  1  0  0  0  0
 27 28  1  0  0  0  0
 27 53  1  0  0  0  0
 27 54  1  0  0  0  0
 28 29  1  0  0  0  0
 28 55  1  0  0  0  0
 28 56  1  0  0  0  0
M  CHG  1   1   1
M  END
$$$$
