TI2
 OpenBabel04041916373D

 62 64  0  0  1  0  0  0  0  0999 V2000
   34.1561   43.1110   -7.1665 S   0  0  0  0  0  0  0  0  0  0  0  0
   34.6134   41.5633   -6.2527 C   0  0  1  0  0  0  0  0  0  0  0  0
   35.0802   40.5037   -7.2428 C   0  0  0  0  0  0  0  0  0  0  0  0
   33.9206   39.7684   -7.8571 C   0  0  0  0  0  0  0  0  0  0  0  0
   33.4785   40.1104   -9.1420 C   0  0  0  0  0  0  0  0  0  0  0  0
   33.2583   38.7751   -7.1327 C   0  0  0  0  0  0  0  0  0  0  0  0
   32.3783   39.4618   -9.6861 C   0  0  0  0  0  0  0  0  0  0  0  0
   32.1560   38.1317   -7.6805 C   0  0  0  0  0  0  0  0  0  0  0  0
   31.7160   38.4790   -8.9561 C   0  0  0  0  0  0  0  0  0  0  0  0
   35.7784   41.9194   -5.3580 C   0  0  0  0  0  0  0  0  0  0  0  0
   36.8479   42.3883   -5.7807 O   0  0  0  0  0  0  0  0  0  0  0  0
   35.5391   41.7655   -4.0148 N   0  0  0  0  0  0  0  0  0  0  0  0
   36.5546   42.2027   -3.0608 C   0  0  1  0  0  0  0  0  0  0  0  0
   35.9350   42.2718   -1.6675 C   0  0  0  0  0  0  0  0  0  0  0  0
   36.8084   42.9748   -0.6687 C   0  0  0  0  0  0  0  0  0  0  0  0
   37.1438   44.3207   -0.8516 C   0  0  0  0  0  0  0  0  0  0  0  0
   37.3176   42.2794    0.4316 C   0  0  0  0  0  0  0  0  0  0  0  0
   37.9865   44.9620    0.0501 C   0  0  0  0  0  0  0  0  0  0  0  0
   38.1584   42.9244    1.3340 C   0  0  0  0  0  0  0  0  0  0  0  0
   38.4933   44.2643    1.1440 C   0  0  0  0  0  0  0  0  0  0  0  0
   37.7366   41.2320   -3.0441 C   0  0  0  0  0  0  0  0  0  0  0  0
   38.8853   41.6202   -2.8481 O   0  0  0  0  0  0  0  0  0  0  0  0
   37.3596   39.9227   -3.0292 N   0  0  0  0  0  0  0  0  0  0  0  0
   38.3154   38.8110   -3.0428 C   0  0  1  0  0  0  0  0  0  0  0  0
   37.7057   37.7981   -2.0833 C   0  0  0  0  0  0  0  0  0  0  0  0
   38.5708   36.7070   -1.5314 C   0  0  0  0  0  0  0  0  0  0  0  0
   39.9196   36.8996   -1.2231 C   0  0  0  0  0  0  0  0  0  0  0  0
   40.6756   35.8602   -0.6671 C   0  0  0  0  0  0  0  0  0  0  0  0
   37.9755   35.4627   -1.2509 C   0  0  0  0  0  0  0  0  0  0  0  0
   38.7216   34.4354   -0.6882 C   0  0  0  0  0  0  0  0  0  0  0  0
   40.0732   34.6343   -0.4065 C   0  0  0  0  0  0  0  0  0  0  0  0
   40.8217   33.6296    0.1395 O   0  0  0  0  0  0  0  0  0  0  0  0
   38.4825   38.1938   -4.4699 C   0  0  0  0  0  0  0  0  0  0  0  0
   37.3916   38.0631   -5.1126 O   0  0  0  0  0  0  0  0  0  0  0  0
   39.6654   37.9237   -4.8213 O   0  0  0  0  0  0  0  0  0  0  0  0
   33.9506   43.9050   -6.1106 H   0  0  0  0  0  0  0  0  0  0  0  0
   33.7550   41.2052   -5.6586 H   0  0  0  0  0  0  0  0  0  0  0  0
   35.7281   39.7707   -6.7479 H   0  0  0  0  0  0  0  0  0  0  0  0
   35.6786   40.9729   -8.0322 H   0  0  0  0  0  0  0  0  0  0  0  0
   34.0025   40.8744   -9.7065 H   0  0  0  0  0  0  0  0  0  0  0  0
   33.6118   38.5016   -6.1398 H   0  0  0  0  0  0  0  0  0  0  0  0
   32.0405   39.7322  -10.6836 H   0  0  0  0  0  0  0  0  0  0  0  0
   31.6487   37.3603   -7.1099 H   0  0  0  0  0  0  0  0  0  0  0  0
   30.8520   37.9740   -9.3864 H   0  0  0  0  0  0  0  0  0  0  0  0
   34.6437   41.4281   -3.6813 H   0  0  0  0  0  0  0  0  0  0  0  0
   36.9435   43.1811   -3.3803 H   0  0  0  0  0  0  0  0  0  0  0  0
   35.6971   41.2614   -1.3068 H   0  0  0  0  0  0  0  0  0  0  0  0
   34.9838   42.8165   -1.7253 H   0  0  0  0  0  0  0  0  0  0  0  0
   36.7620   44.8647   -1.7124 H   0  0  0  0  0  0  0  0  0  0  0  0
   37.0734   41.2292    0.5745 H   0  0  0  0  0  0  0  0  0  0  0  0
   38.2529   46.0023   -0.1073 H   0  0  0  0  0  0  0  0  0  0  0  0
   38.5598   42.3757    2.1803 H   0  0  0  0  0  0  0  0  0  0  0  0
   39.1550   44.7630    1.8454 H   0  0  0  0  0  0  0  0  0  0  0  0
   36.4215   39.6953   -3.3180 H   0  0  0  0  0  0  0  0  0  0  0  0
   39.2823   39.1778   -2.6864 H   0  0  0  0  0  0  0  0  0  0  0  0
   36.8375   37.3435   -2.5777 H   0  0  0  0  0  0  0  0  0  0  0  0
   37.3077   38.3526   -1.2137 H   0  0  0  0  0  0  0  0  0  0  0  0
   40.3984   37.8529   -1.4286 H   0  0  0  0  0  0  0  0  0  0  0  0
   41.7286   36.0139   -0.4649 H   0  0  0  0  0  0  0  0  0  0  0  0
   36.9211   35.3111   -1.4703 H   0  0  0  0  0  0  0  0  0  0  0  0
   38.2391   33.4803   -0.4992 H   0  0  0  0  0  0  0  0  0  0  0  0
   40.2472   32.8475    0.2259 H   0  0  0  0  0  0  0  0  0  0  0  0
  1  2  1  0  0  0  0
  1 36  1  0  0  0  0
  2 10  1  0  0  0  0
  2  3  1  0  0  0  0
  2 37  1  1  0  0  0
  3  4  1  0  0  0  0
  3 38  1  0  0  0  0
  3 39  1  0  0  0  0
  4  6  2  0  0  0  0
  4  5  1  0  0  0  0
  5  7  2  0  0  0  0
  5 40  1  0  0  0  0
  6  8  1  0  0  0  0
  6 41  1  0  0  0  0
  7  9  1  0  0  0  0
  7 42  1  0  0  0  0
  8  9  2  0  0  0  0
  8 43  1  0  0  0  0
  9 44  1  0  0  0  0
 10 12  1  0  0  0  0
 10 11  2  0  0  0  0
 12 13  1  0  0  0  0
 12 45  1  0  0  0  0
 13 21  1  0  0  0  0
 13 14  1  0  0  0  0
 13 46  1  6  0  0  0
 14 15  1  0  0  0  0
 14 47  1  0  0  0  0
 14 48  1  0  0  0  0
 15 17  2  0  0  0  0
 15 16  1  0  0  0  0
 16 18  2  0  0  0  0
 16 49  1  0  0  0  0
 17 19  1  0  0  0  0
 17 50  1  0  0  0  0
 18 20  1  0  0  0  0
 18 51  1  0  0  0  0
 19 20  2  0  0  0  0
 19 52  1  0  0  0  0
 20 53  1  0  0  0  0
 21 23  1  0  0  0  0
 21 22  2  0  0  0  0
 23 24  1  0  0  0  0
 23 54  1  0  0  0  0
 24 33  1  0  0  0  0
 24 25  1  0  0  0  0
 24 55  1  1  0  0  0
 25 26  1  0  0  0  0
 25 56  1  0  0  0  0
 25 57  1  0  0  0  0
 26 29  2  0  0  0  0
 26 27  1  0  0  0  0
 27 28  2  0  0  0  0
 27 58  1  0  0  0  0
 28 31  1  0  0  0  0
 28 59  1  0  0  0  0
 29 30  1  0  0  0  0
 29 60  1  0  0  0  0
 30 31  2  0  0  0  0
 30 61  1  0  0  0  0
 31 32  1  0  0  0  0
 32 62  1  0  0  0  0
 33 35  2  0  0  0  0
 33 34  1  0  0  0  0
M  END
$$$$
