TI3
 OpenBabel04041916373D

 52 54  0  0  1  0  0  0  0  0999 V2000
   36.2664   42.5714   -6.0911 S   0  0  0  0  0  0  0  0  0  0  0  0
   36.8811   42.5137   -4.3615 C   0  0  1  0  0  0  0  0  0  0  0  0
   35.7659   42.5076   -3.2970 C   0  0  0  0  0  0  0  0  0  0  0  0
   36.3374   42.6059   -1.8903 C   0  0  0  0  0  0  0  0  0  0  0  0
   37.0784   43.7280   -1.5044 C   0  0  0  0  0  0  0  0  0  0  0  0
   36.1790   41.5488   -0.9846 C   0  0  0  0  0  0  0  0  0  0  0  0
   37.6480   43.7940   -0.2343 C   0  0  0  0  0  0  0  0  0  0  0  0
   36.7493   41.6149    0.2853 C   0  0  0  0  0  0  0  0  0  0  0  0
   37.4822   42.7379    0.6618 C   0  0  0  0  0  0  0  0  0  0  0  0
   37.8811   41.4336   -4.0421 C   0  0  0  0  0  0  0  0  0  0  0  0
   39.0839   41.6905   -3.9136 O   0  0  0  0  0  0  0  0  0  0  0  0
   37.3573   40.2028   -3.7251 N   0  0  0  0  0  0  0  0  0  0  0  0
   38.2086   39.0615   -3.4959 C   0  0  0  0  0  0  0  0  0  0  0  0
   38.1971   38.2944   -4.8006 C   0  0  0  0  0  0  0  0  0  0  0  0
   37.2812   38.4244   -5.5862 O   0  0  0  0  0  0  0  0  0  0  0  0
   39.2612   37.4428   -5.0326 N   0  0  0  0  0  0  0  0  0  0  0  0
   40.3679   37.0596   -4.1566 C   0  0  2  0  0  0  0  0  0  0  0  0
   39.2629   36.6985   -6.2968 C   0  0  1  0  0  0  0  0  0  0  0  0
   40.6966   36.1852   -6.3838 C   0  0  0  0  0  0  0  0  0  0  0  0
   41.0798   35.9416   -4.9356 C   0  0  0  0  0  0  0  0  0  0  0  0
   39.9946   36.5465   -2.7700 C   0  0  0  0  0  0  0  0  0  0  0  0
   38.7564   35.9369   -2.5322 C   0  0  0  0  0  0  0  0  0  0  0  0
   40.9123   36.6112   -1.7114 C   0  0  0  0  0  0  0  0  0  0  0  0
   38.4292   35.4091   -1.2900 C   0  0  0  0  0  0  0  0  0  0  0  0
   40.5900   36.0761   -0.4622 C   0  0  0  0  0  0  0  0  0  0  0  0
   39.3463   35.4790   -0.2522 C   0  0  0  0  0  0  0  0  0  0  0  0
   38.2197   35.5495   -6.4169 C   0  0  0  0  0  0  0  0  0  0  0  0
   37.9035   34.9469   -5.3385 O   0  0  0  0  0  0  0  0  0  0  0  0
   37.7868   35.3241   -7.5802 O   0  0  0  0  0  0  0  0  0  0  0  0
   35.6390   41.3868   -6.2141 H   0  0  0  0  0  0  0  0  0  0  0  0
   37.4269   43.4531   -4.2799 H   0  0  0  0  0  0  0  0  0  0  0  0
   35.1567   41.6003   -3.3705 H   0  0  0  0  0  0  0  0  0  0  0  0
   35.0931   43.3572   -3.4475 H   0  0  0  0  0  0  0  0  0  0  0  0
   37.2318   44.5508   -2.1988 H   0  0  0  0  0  0  0  0  0  0  0  0
   35.6286   40.6548   -1.2698 H   0  0  0  0  0  0  0  0  0  0  0  0
   38.2234   44.6703    0.0550 H   0  0  0  0  0  0  0  0  0  0  0  0
   36.6246   40.7880    0.9794 H   0  0  0  0  0  0  0  0  0  0  0  0
   37.9256   42.7897    1.6535 H   0  0  0  0  0  0  0  0  0  0  0  0
   36.3852   39.9942   -3.9084 H   0  0  0  0  0  0  0  0  0  0  0  0
   37.7562   38.4796   -2.6878 H   0  0  0  0  0  0  0  0  0  0  0  0
   39.2151   39.3867   -3.2123 H   0  0  0  0  0  0  0  0  0  0  0  0
   41.0343   37.9281   -4.0416 H   0  0  0  0  0  0  0  0  0  0  0  0
   39.0707   37.4043   -7.1123 H   0  0  0  0  0  0  0  0  0  0  0  0
   40.7915   35.2792   -6.9890 H   0  0  0  0  0  0  0  0  0  0  0  0
   41.3499   36.9594   -6.8079 H   0  0  0  0  0  0  0  0  0  0  0  0
   40.7068   34.9557   -4.6334 H   0  0  0  0  0  0  0  0  0  0  0  0
   42.1608   35.9587   -4.7876 H   0  0  0  0  0  0  0  0  0  0  0  0
   38.0222   35.8653   -3.3305 H   0  0  0  0  0  0  0  0  0  0  0  0
   41.8860   37.0698   -1.8611 H   0  0  0  0  0  0  0  0  0  0  0  0
   37.4578   34.9408   -1.1548 H   0  0  0  0  0  0  0  0  0  0  0  0
   41.3104   36.1226    0.3493 H   0  0  0  0  0  0  0  0  0  0  0  0
   39.0980   35.0512    0.7134 H   0  0  0  0  0  0  0  0  0  0  0  0
  1  2  1  0  0  0  0
  1 30  1  0  0  0  0
  2 10  1  0  0  0  0
  2  3  1  0  0  0  0
  2 31  1  1  0  0  0
  3  4  1  0  0  0  0
  3 32  1  0  0  0  0
  3 33  1  0  0  0  0
  4  6  2  0  0  0  0
  4  5  1  0  0  0  0
  5  7  2  0  0  0  0
  5 34  1  0  0  0  0
  6  8  1  0  0  0  0
  6 35  1  0  0  0  0
  7  9  1  0  0  0  0
  7 36  1  0  0  0  0
  8  9  2  0  0  0  0
  8 37  1  0  0  0  0
  9 38  1  0  0  0  0
 10 12  1  0  0  0  0
 10 11  2  0  0  0  0
 12 13  1  0  0  0  0
 12 39  1  0  0  0  0
 13 14  1  0  0  0  0
 13 40  1  0  0  0  0
 13 41  1  0  0  0  0
 14 16  1  0  0  0  0
 14 15  2  0  0  0  0
 16 18  1  0  0  0  0
 16 17  1  0  0  0  0
 17 21  1  0  0  0  0
 17 20  1  0  0  0  0
 17 42  1  1  0  0  0
 18 19  1  0  0  0  0
 18 27  1  0  0  0  0
 18 43  1  6  0  0  0
 19 20  1  0  0  0  0
 19 44  1  0  0  0  0
 19 45  1  0  0  0  0
 20 46  1  0  0  0  0
 20 47  1  0  0  0  0
 21 23  2  0  0  0  0
 21 22  1  0  0  0  0
 22 24  2  0  0  0  0
 22 48  1  0  0  0  0
 23 25  1  0  0  0  0
 23 49  1  0  0  0  0
 24 26  1  0  0  0  0
 24 50  1  0  0  0  0
 25 26  2  0  0  0  0
 25 51  1  0  0  0  0
 26 52  1  0  0  0  0
 27 29  2  0  0  0  0
 27 28  1  0  0  0  0
M  END
$$$$
