TIO
 OpenBabel04041917563D

 31 31  0  0  1  0  0  0  0  0999 V2000
   35.8153   42.6759   -6.7178 S   0  0  0  0  0  0  0  0  0  0  0  0
   35.5457   41.8998   -5.1122 C   0  0  0  0  0  0  0  0  0  0  0  0
   36.5387   42.3460   -4.0647 C   0  0  2  0  0  0  0  0  0  0  0  0
   37.9079   41.6398   -3.9633 C   0  0  0  0  0  0  0  0  0  0  0  0
   38.9724   42.2764   -3.8738 O   0  0  0  0  0  0  0  0  0  0  0  0
   35.7432   42.1851   -2.7810 C   0  0  0  0  0  0  0  0  0  0  0  0
   36.5696   42.7412   -1.6860 C   0  0  0  0  0  0  0  0  0  0  0  0
   37.1745   43.9959   -1.8680 C   0  0  0  0  0  0  0  0  0  0  0  0
   36.8011   41.9677   -0.5568 C   0  0  0  0  0  0  0  0  0  0  0  0
   38.0218   44.4917   -0.9073 C   0  0  0  0  0  0  0  0  0  0  0  0
   37.6488   42.4747    0.4024 C   0  0  0  0  0  0  0  0  0  0  0  0
   38.2269   43.7372    0.2297 C   0  0  0  0  0  0  0  0  0  0  0  0
   37.7863   40.2971   -3.7524 N   0  0  0  0  0  0  0  0  0  0  0  0
   38.8378   39.2751   -3.8231 C   0  0  0  0  0  0  0  0  0  0  0  0
   38.6093   38.2931   -5.0175 C   0  0  0  0  0  0  0  0  0  0  0  0
   37.4089   38.2963   -5.4761 O   0  0  0  0  0  0  0  0  0  0  0  0
   39.6078   37.5985   -5.3904 O   0  0  0  0  0  0  0  0  0  0  0  0
   37.0437   42.1787   -6.9570 H   0  0  0  0  0  0  0  0  0  0  0  0
   35.4862   40.8073   -5.1555 H   0  0  0  0  0  0  0  0  0  0  0  0
   34.5492   42.2378   -4.8250 H   0  0  0  0  0  0  0  0  0  0  0  0
   36.7634   43.4135   -4.2534 H   0  0  0  0  0  0  0  0  0  0  0  0
   35.4893   41.1269   -2.6158 H   0  0  0  0  0  0  0  0  0  0  0  0
   34.7923   42.7364   -2.8211 H   0  0  0  0  0  0  0  0  0  0  0  0
   37.0305   44.5649   -2.7861 H   0  0  0  0  0  0  0  0  0  0  0  0
   36.3328   40.9890   -0.4569 H   0  0  0  0  0  0  0  0  0  0  0  0
   38.4949   45.4557   -1.0586 H   0  0  0  0  0  0  0  0  0  0  0  0
   37.8551   41.8935    1.2907 H   0  0  0  0  0  0  0  0  0  0  0  0
   38.8797   44.1399    1.0271 H   0  0  0  0  0  0  0  0  0  0  0  0
   36.8612   39.9000   -3.8871 H   0  0  0  0  0  0  0  0  0  0  0  0
   38.7782   38.7421   -2.8683 H   0  0  0  0  0  0  0  0  0  0  0  0
   39.8202   39.7530   -3.8687 H   0  0  0  0  0  0  0  0  0  0  0  0
  1  2  1  0  0  0  0
  1 18  1  0  0  0  0
  2  3  1  0  0  0  0
  2 19  1  0  0  0  0
  2 20  1  0  0  0  0
  3  4  1  0  0  0  0
  3  6  1  0  0  0  0
  3 21  1  6  0  0  0
  4  5  2  0  0  0  0
  4 13  1  0  0  0  0
  6  7  1  0  0  0  0
  6 22  1  0  0  0  0
  6 23  1  0  0  0  0
  7  8  2  0  0  0  0
  7  9  1  0  0  0  0
  8 10  1  0  0  0  0
  8 24  1  0  0  0  0
  9 11  2  0  0  0  0
  9 25  1  0  0  0  0
 10 12  2  0  0  0  0
 10 26  1  0  0  0  0
 11 12  1  0  0  0  0
 11 27  1  0  0  0  0
 12 28  1  0  0  0  0
 13 14  1  0  0  0  0
 13 29  1  0  0  0  0
 14 15  1  0  0  0  0
 14 30  1  0  0  0  0
 14 31  1  0  0  0  0
 15 16  2  0  0  0  0
 15 17  1  0  0  0  0
M  END
$$$$
