TK4
 OpenBabel04041914093D

 31 32  0  0  0  0  0  0  0  0999 V2000
   20.1962   15.2129  158.0288 C   0  0  0  0  0  0  0  0  0  0  0  0
   20.5913   15.3099  159.3851 C   0  0  0  0  0  0  0  0  0  0  0  0
   21.8569   15.8228  159.6566 C   0  0  0  0  0  0  0  0  0  0  0  0
   22.7141   16.2268  158.6310 C   0  0  0  0  0  0  0  0  0  0  0  0
   23.2274   16.5332  156.2108 C   0  0  0  0  0  0  0  0  0  0  0  0
   22.8357   16.4074  154.8691 C   0  0  0  0  0  0  0  0  0  0  0  0
   21.5913   15.8820  154.5548 C   0  0  0  0  0  0  0  0  0  0  0  0
   20.7366   15.4891  155.5820 C   0  0  0  0  0  0  0  0  0  0  0  0
   21.0719   15.6096  156.9569 C   0  0  0  0  0  0  0  0  0  0  0  0
   22.3560   16.1370  157.2686 C   0  0  0  0  0  0  0  0  0  0  0  0
   18.5664   14.4702  157.6018 S   0  0  0  0  0  0  0  0  0  0  0  0
   17.8965   14.3024  158.8961 O   0  0  0  0  0  0  0  0  0  0  0  0
   17.9263   15.4726  156.7508 O   0  0  0  0  0  0  0  0  0  0  0  0
   18.9275   13.2199  156.9481 O   0  0  0  0  0  0  0  0  0  0  0  0
   19.7480   14.9155  160.4613 N   0  0  0  0  0  0  0  0  0  0  0  0
   20.1665   14.4546  161.6930 C   0  0  0  0  0  0  0  0  0  0  0  0
   21.3233   14.4290  162.1257 O   0  0  0  0  0  0  0  0  0  0  0  0
   19.0584   13.9061  162.5544 C   0  0  0  0  0  0  0  0  0  0  0  0
   24.9093   17.1944  156.5449 S   0  0  0  0  0  0  0  0  0  0  0  0
   25.4677   17.4432  155.2157 O   0  0  0  0  0  0  0  0  0  0  0  0
   24.6441   18.4039  157.3213 O   0  0  0  0  0  0  0  0  0  0  0  0
   25.5598   16.1076  157.2738 O   0  0  0  0  0  0  0  0  0  0  0  0
   22.2171   15.9468  160.6707 H   0  0  0  0  0  0  0  0  0  0  0  0
   23.6845   16.6208  158.9304 H   0  0  0  0  0  0  0  0  0  0  0  0
   23.5059   16.7076  154.0728 H   0  0  0  0  0  0  0  0  0  0  0  0
   21.2762   15.7704  153.5211 H   0  0  0  0  0  0  0  0  0  0  0  0
   19.7800   15.0682  155.2810 H   0  0  0  0  0  0  0  0  0  0  0  0
   18.7765   14.7195  160.1752 H   0  0  0  0  0  0  0  0  0  0  0  0
   19.4951   13.5598  163.5001 H   0  0  0  0  0  0  0  0  0  0  0  0
   18.5809   13.0478  162.0743 H   0  0  0  0  0  0  0  0  0  0  0  0
   18.3246   14.6807  162.7832 H   0  0  0  0  0  0  0  0  0  0  0  0
  1 11  1  0  0  0  0
  1  9  2  0  0  0  0
  1  2  1  0  0  0  0
  2 15  1  0  0  0  0
  2  3  2  0  0  0  0
  3  4  1  0  0  0  0
  3 23  1  0  0  0  0
  4 10  2  0  0  0  0
  4 24  1  0  0  0  0
  5 10  1  0  0  0  0
  5 19  1  0  0  0  0
  5  6  2  0  0  0  0
  6  7  1  0  0  0  0
  6 25  1  0  0  0  0
  7  8  2  0  0  0  0
  7 26  1  0  0  0  0
  8  9  1  0  0  0  0
  8 27  1  0  0  0  0
  9 10  1  0  0  0  0
 11 14  2  0  0  0  0
 11 13  2  0  0  0  0
 11 12  1  0  0  0  0
 15 16  1  0  0  0  0
 15 28  1  0  0  0  0
 16 18  1  0  0  0  0
 16 17  2  0  0  0  0
 18 29  1  0  0  0  0
 18 30  1  0  0  0  0
 18 31  1  0  0  0  0
 19 22  2  0  0  0  0
 19 21  2  0  0  0  0
 19 20  1  0  0  0  0
M  END
$$$$
