TMC
 OpenBabel04041914223D

 34 36  0  0  1  0  0  0  0  0999 V2000
   50.2565   36.1282    0.6744 O   0  0  0  0  0  0  0  0  0  0  0  0
   50.7464   34.8320   -2.3927 O   0  0  0  0  0  0  0  0  0  0  0  0
   45.5673   31.9098   -1.4679 O   0  0  0  0  0  0  0  0  0  0  0  0
   43.2827   34.5564    1.4469 O   0  0  0  0  0  0  0  0  0  0  0  0
   46.7990   33.4405   -0.2339 N   0  3  0  0  0  0  0  0  0  0  0  0
   44.4809   33.2146    0.0267 N   0  3  0  0  0  0  0  0  0  0  0  0
   50.2386   33.9380   -0.1871 C   0  0  1  0  0  0  0  0  0  0  0  0
   49.7141   34.6200   -1.4368 C   0  0  2  0  0  0  0  0  0  0  0  0
   48.5889   33.7287   -1.9724 C   0  0  0  0  0  0  0  0  0  0  0  0
   48.0705   32.9055   -0.7650 C   0  0  1  0  0  0  0  0  0  0  0  0
   49.2118   32.9168    0.2426 C   0  0  1  0  0  0  0  0  0  0  0  0
   50.5752   32.4578   -0.2260 C   0  0  0  0  0  0  0  0  0  0  0  0
   50.8649   34.8547    0.8347 C   0  0  0  0  0  0  0  0  0  0  0  0
   45.6170   32.8049   -0.6288 C   0  0  0  0  0  0  0  0  0  0  0  0
   44.3453   34.2365    0.9490 C   0  0  0  0  0  0  0  0  0  0  0  0
   45.6487   34.9059    1.2643 C   0  0  0  0  0  0  0  0  0  0  0  0
   46.7663   34.5017    0.6640 C   0  0  0  0  0  0  0  0  0  0  0  0
   45.5784   35.9947    2.2830 C   0  0  0  0  0  0  0  0  0  0  0  0
   50.6408   36.7687    1.2903 H   0  0  0  0  0  0  0  0  0  0  0  0
   50.3608   35.3095   -3.1511 H   0  0  0  0  0  0  0  0  0  0  0  0
   43.6264   32.7056   -0.1937 H   0  0  0  0  0  0  0  0  0  0  0  0
   49.2803   35.5856   -1.1786 H   0  0  0  0  0  0  0  0  0  0  0  0
   47.7885   34.3479   -2.3860 H   0  0  0  0  0  0  0  0  0  0  0  0
   48.9603   33.0835   -2.7796 H   0  0  0  0  0  0  0  0  0  0  0  0
   47.9273   31.8595   -1.0829 H   0  0  0  0  0  0  0  0  0  0  0  0
   48.9287   32.7805    1.2810 H   0  0  0  0  0  0  0  0  0  0  0  0
   51.3069   32.0554    0.4653 H   0  0  0  0  0  0  0  0  0  0  0  0
   50.6331   31.9818   -1.2008 H   0  0  0  0  0  0  0  0  0  0  0  0
   50.6733   34.4966    1.8505 H   0  0  0  0  0  0  0  0  0  0  0  0
   51.9481   34.9280    0.6863 H   0  0  0  0  0  0  0  0  0  0  0  0
   47.7117   34.9803    0.9044 H   0  0  0  0  0  0  0  0  0  0  0  0
   46.5735   36.4195    2.4493 H   0  0  0  0  0  0  0  0  0  0  0  0
   45.2072   35.6132    3.2384 H   0  0  0  0  0  0  0  0  0  0  0  0
   44.9160   36.7963    1.9475 H   0  0  0  0  0  0  0  0  0  0  0  0
  1 13  1  0  0  0  0
  1 19  1  0  0  0  0
  2  8  1  0  0  0  0
  2 20  1  0  0  0  0
  3 14  2  0  0  0  0
  4 15  2  0  0  0  0
  5 10  1  0  0  0  0
  5 14  1  0  0  0  0
  5 17  1  0  0  0  0
  6 15  1  0  0  0  0
  6 14  1  0  0  0  0
  6 21  1  0  0  0  0
  7 13  1  1  0  0  0
  7  8  1  0  0  0  0
  7 11  1  0  0  0  0
  7 12  1  0  0  0  0
  8  9  1  0  0  0  0
  8 22  1  1  0  0  0
  9 10  1  0  0  0  0
  9 23  1  0  0  0  0
  9 24  1  0  0  0  0
 10 11  1  0  0  0  0
 10 25  1  6  0  0  0
 11 12  1  0  0  0  0
 11 26  1  1  0  0  0
 12 27  1  0  0  0  0
 12 28  1  0  0  0  0
 13 29  1  0  0  0  0
 13 30  1  0  0  0  0
 15 16  1  0  0  0  0
 16 17  2  0  0  0  0
 16 18  1  0  0  0  0
 17 31  1  0  0  0  0
 18 32  1  0  0  0  0
 18 33  1  0  0  0  0
 18 34  1  0  0  0  0
M  CHG  2   5   1   6   1
M  END
$$$$
