TMC
 OpenBabel04041914223D

 34 36  0  0  1  0  0  0  0  0999 V2000
   50.3619   35.7523    1.2280 O   0  0  0  0  0  0  0  0  0  0  0  0
   50.7479   34.5556   -2.0405 O   0  0  0  0  0  0  0  0  0  0  0  0
   45.4812   31.6926   -1.2553 O   0  0  0  0  0  0  0  0  0  0  0  0
   43.2207   34.5248    1.4665 O   0  0  0  0  0  0  0  0  0  0  0  0
   46.6880   33.2655   -0.0221 N   0  3  0  0  0  0  0  0  0  0  0  0
   44.3906   33.1098    0.1609 N   0  3  0  0  0  0  0  0  0  0  0  0
   50.1408   33.5973    0.1924 C   0  0  1  0  0  0  0  0  0  0  0  0
   49.7295   34.3307   -1.0709 C   0  0  2  0  0  0  0  0  0  0  0  0
   48.4818   33.6447   -1.6188 C   0  0  0  0  0  0  0  0  0  0  0  0
   47.9447   32.7269   -0.5038 C   0  0  1  0  0  0  0  0  0  0  0  0
   49.0054   32.6701    0.5823 C   0  0  1  0  0  0  0  0  0  0  0  0
   50.3371   32.0989    0.1606 C   0  0  0  0  0  0  0  0  0  0  0  0
   50.8122   34.4033    1.2744 C   0  0  0  0  0  0  0  0  0  0  0  0
   45.4899   32.6325   -0.4378 C   0  0  0  0  0  0  0  0  0  0  0  0
   44.3022   34.1584    1.0291 C   0  0  0  0  0  0  0  0  0  0  0  0
   45.5634   34.8346    1.4099 C   0  0  0  0  0  0  0  0  0  0  0  0
   46.6724   34.3556    0.8458 C   0  0  0  0  0  0  0  0  0  0  0  0
   45.5927   35.9812    2.3853 C   0  0  0  0  0  0  0  0  0  0  0  0
   50.8047   36.2612    1.9281 H   0  0  0  0  0  0  0  0  0  0  0  0
   51.4814   35.0071   -1.5807 H   0  0  0  0  0  0  0  0  0  0  0  0
   43.5138   32.6578   -0.0468 H   0  0  0  0  0  0  0  0  0  0  0  0
   49.4004   35.3233   -0.7837 H   0  0  0  0  0  0  0  0  0  0  0  0
   47.7324   34.4197   -1.8429 H   0  0  0  0  0  0  0  0  0  0  0  0
   48.6768   33.0851   -2.5383 H   0  0  0  0  0  0  0  0  0  0  0  0
   47.8111   31.7114   -0.9073 H   0  0  0  0  0  0  0  0  0  0  0  0
   48.6432   32.5551    1.6128 H   0  0  0  0  0  0  0  0  0  0  0  0
   51.0037   31.6377    0.8756 H   0  0  0  0  0  0  0  0  0  0  0  0
   50.3805   31.6087   -0.8083 H   0  0  0  0  0  0  0  0  0  0  0  0
   50.5633   33.9797    2.2540 H   0  0  0  0  0  0  0  0  0  0  0  0
   51.8968   34.3717    1.1336 H   0  0  0  0  0  0  0  0  0  0  0  0
   47.6403   34.8016    1.0890 H   0  0  0  0  0  0  0  0  0  0  0  0
   46.6288   36.3326    2.5213 H   0  0  0  0  0  0  0  0  0  0  0  0
   45.2107   35.6754    3.3667 H   0  0  0  0  0  0  0  0  0  0  0  0
   44.9964   36.8247    2.0199 H   0  0  0  0  0  0  0  0  0  0  0  0
  1 13  1  0  0  0  0
  1 19  1  0  0  0  0
  2  8  1  0  0  0  0
  2 20  1  0  0  0  0
  3 14  2  0  0  0  0
  4 15  2  0  0  0  0
  5 10  1  0  0  0  0
  5 14  1  0  0  0  0
  5 17  1  0  0  0  0
  6 15  1  0  0  0  0
  6 14  1  0  0  0  0
  6 21  1  0  0  0  0
  7 13  1  1  0  0  0
  7  8  1  0  0  0  0
  7 11  1  0  0  0  0
  7 12  1  0  0  0  0
  8  9  1  0  0  0  0
  8 22  1  1  0  0  0
  9 10  1  0  0  0  0
  9 23  1  0  0  0  0
  9 24  1  0  0  0  0
 10 11  1  0  0  0  0
 10 25  1  6  0  0  0
 11 12  1  0  0  0  0
 11 26  1  1  0  0  0
 12 27  1  0  0  0  0
 12 28  1  0  0  0  0
 13 29  1  0  0  0  0
 13 30  1  0  0  0  0
 15 16  1  0  0  0  0
 16 17  2  0  0  0  0
 16 18  1  0  0  0  0
 17 31  1  0  0  0  0
 18 32  1  0  0  0  0
 18 33  1  0  0  0  0
 18 34  1  0  0  0  0
M  CHG  2   5   1   6   1
M  END
$$$$
