TMG
 OpenBabel04041917533D

 21 23  0  0  0  0  0  0  0  0999 V2000
   24.3543  -13.3799    8.2904 C   0  0  0  0  0  0  0  0  0  0  0  0
   23.3480  -12.5809    7.8500 N   0  0  0  0  0  0  0  0  0  0  0  0
   23.7579  -12.0722    6.7111 C   0  0  0  0  0  0  0  0  0  0  0  0
   22.9083  -11.1290    5.9332 C   0  0  0  0  0  0  0  0  0  0  0  0
   23.2129  -10.5600    4.7134 C   0  0  0  0  0  0  0  0  0  0  0  0
   21.9205   -9.5337    4.2172 S   0  0  0  0  0  0  0  0  0  0  0  0
   21.0749   -9.9274    5.6516 C   0  0  0  0  0  0  0  0  0  0  0  0
   21.6780  -10.7646    6.4577 N   0  0  0  0  0  0  0  0  0  0  0  0
   25.0184  -12.5249    6.3969 N   0  3  0  0  0  0  0  0  0  0  0  0
   25.4254  -13.3704    7.4043 C   0  0  0  0  0  0  0  0  0  0  0  0
   26.5918  -14.1053    7.6280 C   0  0  0  0  0  0  0  0  0  0  0  0
   26.6263  -14.8802    8.7973 C   0  0  0  0  0  0  0  0  0  0  0  0
   25.5575  -14.9004    9.6984 C   0  0  0  0  0  0  0  0  0  0  0  0
   24.4094  -14.1450    9.4578 C   0  0  0  0  0  0  0  0  0  0  0  0
   24.0874  -10.6750    4.0933 H   0  0  0  0  0  0  0  0  0  0  0  0
   20.1026   -9.5177    5.8926 H   0  0  0  0  0  0  0  0  0  0  0  0
   25.5572  -12.2756    5.5824 H   0  0  0  0  0  0  0  0  0  0  0  0
   27.4317  -14.0876    6.9426 H   0  0  0  0  0  0  0  0  0  0  0  0
   27.5062  -15.4832    9.0137 H   0  0  0  0  0  0  0  0  0  0  0  0
   25.6114  -15.5056   10.5989 H   0  0  0  0  0  0  0  0  0  0  0  0
   23.5702  -14.1381   10.1444 H   0  0  0  0  0  0  0  0  0  0  0  0
  1  2  1  0  0  0  0
  1 10  2  0  0  0  0
  1 14  1  0  0  0  0
  2  3  1  0  0  0  0
  3  4  1  0  0  0  0
  3  9  2  0  0  0  0
  4  5  2  0  0  0  0
  4  8  1  0  0  0  0
  5  6  1  0  0  0  0
  5 15  1  0  0  0  0
  6  7  1  0  0  0  0
  7  8  2  0  0  0  0
  7 16  1  0  0  0  0
  9 10  1  0  0  0  0
  9 17  1  0  0  0  0
 10 11  1  0  0  0  0
 11 12  2  0  0  0  0
 11 18  1  0  0  0  0
 12 13  1  0  0  0  0
 12 19  1  0  0  0  0
 13 14  2  0  0  0  0
 13 20  1  0  0  0  0
 14 21  1  0  0  0  0
M  CHG  1   9   1
M  END
$$$$
