TP3
 OpenBabel04041914323D

 46 47  0  0  1  0  0  0  0  0999 V2000
   16.1254   13.5567   30.2375 C   0  0  0  0  0  0  0  0  0  0  0  0
   17.4390   13.8990   30.9250 C   0  0  0  0  0  0  0  0  0  0  0  0
   17.3581   15.3468   31.1470 N   0  0  0  0  0  0  0  0  0  0  0  0
   16.2679   15.9334   30.2999 C   0  0  2  0  0  0  0  0  0  0  0  0
   15.8999   14.7756   29.3581 C   0  0  0  0  0  0  0  0  0  0  0  0
   16.5987   17.1928   29.4601 C   0  0  0  0  0  0  0  0  0  0  0  0
   17.7418   17.2419   28.9182 O   0  0  0  0  0  0  0  0  0  0  0  0
   15.6323   18.0078   29.3363 O   0  0  0  0  0  0  0  0  0  0  0  0
   17.7973   16.0271   32.6097 S   0  0  0  0  0  0  0  0  0  0  0  0
   16.5930   15.4068   33.7838 C   0  0  0  0  0  0  0  0  0  0  0  0
   19.0712   15.4447   32.9938 O   0  0  0  0  0  0  0  0  0  0  0  0
   17.6254   17.4627   32.5761 O   0  0  0  0  0  0  0  0  0  0  0  0
   15.3094   15.9541   33.7997 C   0  0  0  0  0  0  0  0  0  0  0  0
   14.3833   15.5020   34.7396 C   0  0  0  0  0  0  0  0  0  0  0  0
   14.7293   14.5188   35.6811 C   0  0  0  0  0  0  0  0  0  0  0  0
   16.0365   14.0141   35.6991 C   0  0  0  0  0  0  0  0  0  0  0  0
   16.9684   14.4601   34.7499 C   0  0  0  0  0  0  0  0  0  0  0  0
   13.6344   14.0237   36.5738 C   0  0  0  0  0  0  0  0  0  0  0  0
   13.9975   13.3008   37.6812 N   0  0  0  0  0  0  0  0  0  0  0  0
   13.0135   12.8368   38.6766 C   0  0  1  0  0  0  0  0  0  0  0  0
   12.6775   11.3331   38.5372 C   0  0  0  0  0  0  0  0  0  0  0  0
   13.4740   10.5569   37.4794 C   0  0  0  0  0  0  0  0  0  0  0  0
   13.4150    9.0420   37.6869 C   0  0  0  0  0  0  0  0  0  0  0  0
   12.4743   14.2919   36.2687 O   0  0  0  0  0  0  0  0  0  0  0  0
   13.4849   13.1951   40.1303 C   0  0  0  0  0  0  0  0  0  0  0  0
   12.5708   13.3822   40.9876 O   0  0  0  0  0  0  0  0  0  0  0  0
   14.7417   13.3578   40.2547 O   0  0  0  0  0  0  0  0  0  0  0  0
   14.0220    8.5949   38.7020 O   0  0  0  0  0  0  0  0  0  0  0  0
   12.8120    8.3900   36.7832 O   0  0  0  0  0  0  0  0  0  0  0  0
   16.1719   12.6195   29.6762 H   0  0  0  0  0  0  0  0  0  0  0  0
   15.3192   13.4743   30.9776 H   0  0  0  0  0  0  0  0  0  0  0  0
   18.2830   13.6996   30.2547 H   0  0  0  0  0  0  0  0  0  0  0  0
   17.5772   13.3178   31.8391 H   0  0  0  0  0  0  0  0  0  0  0  0
   15.3995   16.1458   30.9297 H   0  0  0  0  0  0  0  0  0  0  0  0
   14.8674   14.8399   29.0006 H   0  0  0  0  0  0  0  0  0  0  0  0
   16.5565   14.7299   28.4793 H   0  0  0  0  0  0  0  0  0  0  0  0
   15.0204   16.7254   33.0919 H   0  0  0  0  0  0  0  0  0  0  0  0
   13.3753   15.9139   34.7395 H   0  0  0  0  0  0  0  0  0  0  0  0
   16.3370   13.2630   36.4261 H   0  0  0  0  0  0  0  0  0  0  0  0
   17.9812   14.0621   34.7750 H   0  0  0  0  0  0  0  0  0  0  0  0
   14.9395   13.2968   38.0461 H   0  0  0  0  0  0  0  0  0  0  0  0
   12.0856   13.4046   38.5170 H   0  0  0  0  0  0  0  0  0  0  0  0
   11.6146   11.2540   38.2628 H   0  0  0  0  0  0  0  0  0  0  0  0
   12.7511   10.8376   39.5120 H   0  0  0  0  0  0  0  0  0  0  0  0
   14.5334   10.8348   37.5070 H   0  0  0  0  0  0  0  0  0  0  0  0
   13.0996   10.8091   36.4780 H   0  0  0  0  0  0  0  0  0  0  0  0
  1  5  1  0  0  0  0
  1  2  1  0  0  0  0
  1 30  1  0  0  0  0
  1 31  1  0  0  0  0
  2  3  1  0  0  0  0
  2 32  1  0  0  0  0
  2 33  1  0  0  0  0
  3  9  1  0  0  0  0
  3  4  1  0  0  0  0
  4  6  1  0  0  0  0
  4  5  1  0  0  0  0
  4 34  1  1  0  0  0
  5 35  1  0  0  0  0
  5 36  1  0  0  0  0
  6  8  2  0  0  0  0
  6  7  1  0  0  0  0
  9 12  2  0  0  0  0
  9 11  2  0  0  0  0
  9 10  1  0  0  0  0
 10 17  2  0  0  0  0
 10 13  1  0  0  0  0
 13 14  2  0  0  0  0
 13 37  1  0  0  0  0
 14 15  1  0  0  0  0
 14 38  1  0  0  0  0
 15 18  1  0  0  0  0
 15 16  2  0  0  0  0
 16 17  1  0  0  0  0
 16 39  1  0  0  0  0
 17 40  1  0  0  0  0
 18 24  2  0  0  0  0
 18 19  1  0  0  0  0
 19 20  1  0  0  0  0
 19 41  1  0  0  0  0
 20 25  1  0  0  0  0
 20 21  1  0  0  0  0
 20 42  1  6  0  0  0
 21 22  1  0  0  0  0
 21 43  1  0  0  0  0
 21 44  1  0  0  0  0
 22 23  1  0  0  0  0
 22 45  1  0  0  0  0
 22 46  1  0  0  0  0
 23 29  2  0  0  0  0
 23 28  1  0  0  0  0
 25 27  2  0  0  0  0
 25 26  1  0  0  0  0
M  END
$$$$
