TPD
 OpenBabel04041914043D

 29 30  0  0  0  0  0  0  0  0999 V2000
   -5.2422    2.0844   15.8688 C   0  0  0  0  0  0  0  0  0  0  0  0
   -2.5737    6.3688   14.0277 C   0  0  0  0  0  0  0  0  0  0  0  0
   -2.0127    7.7261   13.8513 C   0  0  0  0  0  0  0  0  0  0  0  0
   -2.0576    8.4749   12.6975 C   0  0  0  0  0  0  0  0  0  0  0  0
   -1.5665    9.7893   12.9051 C   0  0  0  0  0  0  0  0  0  0  0  0
   -1.1637    9.9883   14.2071 C   0  0  0  0  0  0  0  0  0  0  0  0
   -5.3875    1.0589   18.2045 O   0  0  0  0  0  0  0  0  0  0  0  0
   -7.3977    0.8666   16.6600 O   0  0  0  0  0  0  0  0  0  0  0  0
   -5.3598   -0.5724   16.3151 N   0  0  0  0  0  0  0  0  0  0  0  0
   -5.9760    0.8583   16.9033 S   0  0  0  0  0  0  0  0  0  0  0  0
   -4.0059    2.0965   15.2594 C   0  0  0  0  0  0  0  0  0  0  0  0
   -3.8046    3.2673   14.5002 C   0  0  0  0  0  0  0  0  0  0  0  0
   -4.9079    4.0961   14.5267 C   0  0  0  0  0  0  0  0  0  0  0  0
   -6.1450    3.4853   15.5231 S   0  0  0  0  0  0  0  0  0  0  0  0
   -5.1513    5.6777   13.7697 S   0  0  0  0  0  0  0  0  0  0  0  0
   -4.8850    5.4721   12.3800 O   0  0  0  0  0  0  0  0  0  0  0  0
   -6.3949    6.2241   14.2517 O   0  0  0  0  0  0  0  0  0  0  0  0
   -3.9446    6.5957   14.4137 N   0  0  0  0  0  0  0  0  0  0  0  0
   -1.3733    8.5956   15.1731 S   0  0  0  0  0  0  0  0  0  0  0  0
   -2.5008    5.8231   13.0770 H   0  0  0  0  0  0  0  0  0  0  0  0
   -2.0386    5.7857   14.7796 H   0  0  0  0  0  0  0  0  0  0  0  0
   -2.4717    8.0978   11.7674 H   0  0  0  0  0  0  0  0  0  0  0  0
   -1.5326   10.5487   12.1408 H   0  0  0  0  0  0  0  0  0  0  0  0
   -0.7639   10.8949   14.6412 H   0  0  0  0  0  0  0  0  0  0  0  0
   -5.6922   -1.4287   16.7415 H   0  0  0  0  0  0  0  0  0  0  0  0
   -4.8381   -0.5762   15.4457 H   0  0  0  0  0  0  0  0  0  0  0  0
   -3.2857    1.2941   15.3650 H   0  0  0  0  0  0  0  0  0  0  0  0
   -2.8955    3.4953   13.9575 H   0  0  0  0  0  0  0  0  0  0  0  0
   -4.1913    7.3395   15.0655 H   0  0  0  0  0  0  0  0  0  0  0  0
  1 14  1  0  0  0  0
  1 11  2  0  0  0  0
  1 10  1  0  0  0  0
  2 18  1  0  0  0  0
  2  3  1  0  0  0  0
  2 20  1  0  0  0  0
  2 21  1  0  0  0  0
  3 19  1  0  0  0  0
  3  4  2  0  0  0  0
  4  5  1  0  0  0  0
  4 22  1  0  0  0  0
  5  6  2  0  0  0  0
  5 23  1  0  0  0  0
  6 19  1  0  0  0  0
  6 24  1  0  0  0  0
  7 10  2  0  0  0  0
  8 10  2  0  0  0  0
  9 10  1  0  0  0  0
  9 25  1  0  0  0  0
  9 26  1  0  0  0  0
 11 12  1  0  0  0  0
 11 27  1  0  0  0  0
 12 13  2  0  0  0  0
 12 28  1  0  0  0  0
 13 15  1  0  0  0  0
 13 14  1  0  0  0  0
 15 18  1  0  0  0  0
 15 17  2  0  0  0  0
 15 16  2  0  0  0  0
 18 29  1  0  0  0  0
M  END
$$$$
