TPR
 OpenBabel04041914323D

 32 33  0  0  1  0  0  0  0  0999 V2000
   38.0100   61.0257   78.5869 C   0  0  0  0  0  0  0  0  0  0  0  0
   38.3928   59.8942   77.8576 C   0  0  0  0  0  0  0  0  0  0  0  0
   38.3008   58.6285   78.4663 C   0  0  0  0  0  0  0  0  0  0  0  0
   37.8411   58.4991   79.7895 C   0  0  0  0  0  0  0  0  0  0  0  0
   37.4782   59.6371   80.5145 C   0  0  0  0  0  0  0  0  0  0  0  0
   37.5629   60.9015   79.9145 C   0  0  0  0  0  0  0  0  0  0  0  0
   38.9015   60.0069   76.4490 C   0  0  0  0  0  0  0  0  0  0  0  0
   36.8719   59.4899   82.2341 S   0  0  0  0  0  0  0  0  0  0  0  0
   37.4779   60.5994   82.9573 O   0  0  0  0  0  0  0  0  0  0  0  0
   37.1570   58.1328   82.6243 O   0  0  0  0  0  0  0  0  0  0  0  0
   35.1982   59.7310   82.1039 N   0  0  0  0  0  0  0  0  0  0  0  0
   34.5224   60.0013   80.8445 C   0  0  0  0  0  0  0  0  0  0  0  0
   33.4688   58.9226   80.6951 C   0  0  0  0  0  0  0  0  0  0  0  0
   33.0567   58.6215   82.1305 C   0  0  0  0  0  0  0  0  0  0  0  0
   34.3123   58.8769   82.9925 C   0  0  2  0  0  0  0  0  0  0  0  0
   34.0660   59.5044   84.4253 C   0  0  0  0  0  0  0  0  0  0  0  0
   33.8233   58.6243   85.3253 O   0  0  0  0  0  0  0  0  0  0  0  0
   34.1002   60.7442   84.5001 O   0  0  0  0  0  0  0  0  0  0  0  0
   38.0631   62.0205   78.1363 H   0  0  0  0  0  0  0  0  0  0  0  0
   38.5992   57.7472   77.9053 H   0  0  0  0  0  0  0  0  0  0  0  0
   37.7696   57.5079   80.2346 H   0  0  0  0  0  0  0  0  0  0  0  0
   37.2456   61.7819   80.4692 H   0  0  0  0  0  0  0  0  0  0  0  0
   38.9138   61.0495   76.1151 H   0  0  0  0  0  0  0  0  0  0  0  0
   38.2605   59.4367   75.7681 H   0  0  0  0  0  0  0  0  0  0  0  0
   39.9225   59.6148   76.3832 H   0  0  0  0  0  0  0  0  0  0  0  0
   35.2000   59.9606   80.0008 H   0  0  0  0  0  0  0  0  0  0  0  0
   34.0543   60.9981   80.8264 H   0  0  0  0  0  0  0  0  0  0  0  0
   33.9039   58.0382   80.2102 H   0  0  0  0  0  0  0  0  0  0  0  0
   32.6243   59.2575   80.0784 H   0  0  0  0  0  0  0  0  0  0  0  0
   32.7148   57.5786   82.2054 H   0  0  0  0  0  0  0  0  0  0  0  0
   32.2238   59.2659   82.4227 H   0  0  0  0  0  0  0  0  0  0  0  0
   34.8063   57.9051   83.1113 H   0  0  0  0  0  0  0  0  0  0  0  0
  1  6  2  0  0  0  0
  1  2  1  0  0  0  0
  1 19  1  0  0  0  0
  2  7  1  0  0  0  0
  2  3  2  0  0  0  0
  3  4  1  0  0  0  0
  3 20  1  0  0  0  0
  4  5  2  0  0  0  0
  4 21  1  0  0  0  0
  5  8  1  0  0  0  0
  5  6  1  0  0  0  0
  6 22  1  0  0  0  0
  7 23  1  0  0  0  0
  7 24  1  0  0  0  0
  7 25  1  0  0  0  0
  8 11  1  0  0  0  0
  8 10  2  0  0  0  0
  8  9  2  0  0  0  0
 11 15  1  0  0  0  0
 11 12  1  0  0  0  0
 12 13  1  0  0  0  0
 12 26  1  0  0  0  0
 12 27  1  0  0  0  0
 13 14  1  0  0  0  0
 13 28  1  0  0  0  0
 13 29  1  0  0  0  0
 14 15  1  0  0  0  0
 14 30  1  0  0  0  0
 14 31  1  0  0  0  0
 15 16  1  0  0  0  0
 15 32  1  1  0  0  0
 16 18  2  0  0  0  0
 16 17  1  0  0  0  0
M  END
$$$$
