TRP
 OpenBabel04041916343D

 27 28  0  0  1  0  0  0  0  0999 V2000
   18.8651   63.0016   33.5326 N   0  3  0  0  0  0  0  0  0  0  0  0
   18.0433   61.8647   32.9453 C   0  0  2  0  0  0  0  0  0  0  0  0
   18.6940   61.2712   31.6427 C   0  0  0  0  0  0  0  0  0  0  0  0
   18.8783   62.1381   30.7424 O   0  0  0  0  0  0  0  0  0  0  0  0
   16.6060   62.3551   32.8061 C   0  0  0  0  0  0  0  0  0  0  0  0
   15.6954   61.2194   32.4971 C   0  0  1  0  0  0  0  0  0  0  0  0
   15.2823   60.8832   31.2270 C   0  0  0  0  0  0  0  0  0  0  0  0
   15.1655   60.2280   33.3888 C   0  0  1  0  0  0  0  0  0  0  0  0
   14.5393   59.7384   31.3006 N   0  3  0  0  0  0  0  0  0  0  0  0
   14.4497   59.3129   32.6064 C   0  0  1  0  0  0  0  0  0  0  0  0
   15.2436   60.0094   34.7751 C   0  0  0  0  0  0  0  0  0  0  0  0
   13.8023   58.2025   33.1500 C   0  0  0  0  0  0  0  0  0  0  0  0
   14.5972   58.8966   35.3357 C   0  0  0  0  0  0  0  0  0  0  0  0
   13.8863   58.0119   34.5262 C   0  0  0  0  0  0  0  0  0  0  0  0
   19.1453   60.1140   31.7863 O   0  0  0  0  0  0  0  0  0  0  0  0
   19.8346   62.6668   33.5917 H   0  0  0  0  0  0  0  0  0  0  0  0
   18.8658   63.7724   32.8503 H   0  0  0  0  0  0  0  0  0  0  0  0
   18.0862   61.0863   33.7192 H   0  0  0  0  0  0  0  0  0  0  0  0
   16.5294   63.1239   32.0250 H   0  0  0  0  0  0  0  0  0  0  0  0
   16.2757   62.8390   33.7339 H   0  0  0  0  0  0  0  0  0  0  0  0
   15.5057   61.3523   30.2799 H   0  0  0  0  0  0  0  0  0  0  0  0
   14.1226   59.2618   30.5123 H   0  0  0  0  0  0  0  0  0  0  0  0
   15.7897   60.6919   35.4179 H   0  0  0  0  0  0  0  0  0  0  0  0
   13.2478   57.5042   32.5264 H   0  0  0  0  0  0  0  0  0  0  0  0
   14.6437   58.7240   36.4019 H   0  0  0  0  0  0  0  0  0  0  0  0
   13.3882   57.1522   34.9763 H   0  0  0  0  0  0  0  0  0  0  0  0
   18.5215   63.2850   34.4473 H   0  0  0  0  0  0  0  0  0  0  0  0
  1  2  1  0  0  0  0
  1 16  1  0  0  0  0
  1 17  1  0  0  0  0
  1 27  1  0  0  0  0
  2  5  1  0  0  0  0
  2  3  1  0  0  0  0
  2 18  1  1  0  0  0
  3  4  2  0  0  0  0
  3 15  1  0  0  0  0
  5 19  1  0  0  0  0
  5 20  1  0  0  0  0
  6  5  1  6  0  0  0
  6  7  1  0  0  0  0
  6  8  1  0  0  0  0
  7  9  1  0  0  0  0
  7 21  1  0  0  0  0
  8 11  1  6  0  0  0
  8 10  1  0  0  0  0
  9 10  1  0  0  0  0
  9 22  1  0  0  0  0
 10 12  1  6  0  0  0
 11 13  1  0  0  0  0
 11 23  1  0  0  0  0
 12 14  1  0  0  0  0
 12 24  1  0  0  0  0
 13 14  1  0  0  0  0
 13 25  1  0  0  0  0
 14 26  1  0  0  0  0
M  CHG  2   1   1   9   1
M  END
$$$$
