TTB
 OpenBabel04041917373D

 53 55  0  0  0  0  0  0  0  0999 V2000
   41.9169   20.3486  101.2822 C   0  0  0  0  0  0  0  0  0  0  0  0
   42.5636   21.6355  100.8303 C   0  0  0  0  0  0  0  0  0  0  0  0
   42.0848   22.8872  101.0424 C   0  0  0  0  0  0  0  0  0  0  0  0
   40.8814   23.4397  101.7220 C   0  0  0  0  0  0  0  0  0  0  0  0
   40.4806   24.7454  101.3759 C   0  0  0  0  0  0  0  0  0  0  0  0
   39.3685   25.3599  101.9746 C   0  0  0  0  0  0  0  0  0  0  0  0
   38.6137   24.6933  102.9454 C   0  0  0  0  0  0  0  0  0  0  0  0
   37.3984   25.3388  103.5873 C   0  0  0  0  0  0  0  0  0  0  0  0
   37.0956   26.5124  103.2000 O   0  0  0  0  0  0  0  0  0  0  0  0
   36.7768   24.6597  104.4591 O   0  0  0  0  0  0  0  0  0  0  0  0
   39.0294   23.4072  103.3152 C   0  0  0  0  0  0  0  0  0  0  0  0
   40.1542   22.8027  102.7297 C   0  0  0  0  0  0  0  0  0  0  0  0
   43.8365   21.4725  100.0349 C   0  0  0  0  0  0  0  0  0  0  0  0
   44.8876   22.3827  100.1410 C   0  0  0  0  0  0  0  0  0  0  0  0
   46.0603   22.2279   99.3916 C   0  0  0  0  0  0  0  0  0  0  0  0
   46.2596   21.1451   98.5066 C   0  0  0  0  0  0  0  0  0  0  0  0
   45.2325   20.1831   98.3995 C   0  0  0  0  0  0  0  0  0  0  0  0
   44.0399   20.3873   99.1597 C   0  0  0  0  0  0  0  0  0  0  0  0
   45.3602   18.9479   97.4996 C   0  0  0  0  0  0  0  0  0  0  0  0
   44.8144   17.6791   98.2017 C   0  0  0  0  0  0  0  0  0  0  0  0
   44.5557   19.1368   96.1935 C   0  0  0  0  0  0  0  0  0  0  0  0
   46.8382   18.6626   97.1413 C   0  0  0  0  0  0  0  0  0  0  0  0
   47.5915   19.9046   96.6930 C   0  0  0  0  0  0  0  0  0  0  0  0
   47.5835   21.0459   97.7380 C   0  0  0  0  0  0  0  0  0  0  0  0
   47.8739   22.3616   96.9772 C   0  0  0  0  0  0  0  0  0  0  0  0
   48.7448   20.8068   98.7314 C   0  0  0  0  0  0  0  0  0  0  0  0
   40.9849   20.4812  101.8237 H   0  0  0  0  0  0  0  0  0  0  0  0
   42.5938   19.7904  101.9402 H   0  0  0  0  0  0  0  0  0  0  0  0
   41.6487   19.7092  100.4365 H   0  0  0  0  0  0  0  0  0  0  0  0
   42.6592   23.7052  100.6057 H   0  0  0  0  0  0  0  0  0  0  0  0
   41.0270   25.3170  100.6302 H   0  0  0  0  0  0  0  0  0  0  0  0
   39.0814   26.3707  101.6869 H   0  0  0  0  0  0  0  0  0  0  0  0
   38.4660   22.8737  104.0793 H   0  0  0  0  0  0  0  0  0  0  0  0
   40.4328   21.8311  103.1140 H   0  0  0  0  0  0  0  0  0  0  0  0
   44.8211   23.2342  100.8144 H   0  0  0  0  0  0  0  0  0  0  0  0
   46.8334   22.9829   99.5261 H   0  0  0  0  0  0  0  0  0  0  0  0
   43.2342   19.6723   99.0462 H   0  0  0  0  0  0  0  0  0  0  0  0
   44.9254   16.7946   97.5653 H   0  0  0  0  0  0  0  0  0  0  0  0
   43.7470   17.7557   98.4336 H   0  0  0  0  0  0  0  0  0  0  0  0
   45.3436   17.4916   99.1424 H   0  0  0  0  0  0  0  0  0  0  0  0
   44.8953   20.0050   95.6195 H   0  0  0  0  0  0  0  0  0  0  0  0
   43.4863   19.2695   96.3908 H   0  0  0  0  0  0  0  0  0  0  0  0
   44.6568   18.2553   95.5470 H   0  0  0  0  0  0  0  0  0  0  0  0
   46.8857   17.9184   96.3373 H   0  0  0  0  0  0  0  0  0  0  0  0
   47.3597   18.2080   97.9972 H   0  0  0  0  0  0  0  0  0  0  0  0
   47.1764   20.2522   95.7350 H   0  0  0  0  0  0  0  0  0  0  0  0
   48.6271   19.6179   96.4636 H   0  0  0  0  0  0  0  0  0  0  0  0
   47.9090   23.2330   97.6388 H   0  0  0  0  0  0  0  0  0  0  0  0
   47.1038   22.5591   96.2223 H   0  0  0  0  0  0  0  0  0  0  0  0
   48.8428   22.3157   96.4655 H   0  0  0  0  0  0  0  0  0  0  0  0
   48.6059   19.8811   99.3000 H   0  0  0  0  0  0  0  0  0  0  0  0
   48.8436   21.6268   99.4516 H   0  0  0  0  0  0  0  0  0  0  0  0
   49.7036   20.7333   98.2027 H   0  0  0  0  0  0  0  0  0  0  0  0
  1  2  1  0  0  0  0
  1 27  1  0  0  0  0
  1 28  1  0  0  0  0
  1 29  1  0  0  0  0
  2  3  2  0  0  0  0
  2 13  1  0  0  0  0
  3  4  1  0  0  0  0
  3 30  1  0  0  0  0
  4  5  2  0  0  0  0
  4 12  1  0  0  0  0
  5  6  1  0  0  0  0
  5 31  1  0  0  0  0
  6  7  2  0  0  0  0
  6 32  1  0  0  0  0
  7  8  1  0  0  0  0
  7 11  1  0  0  0  0
  8  9  2  0  0  0  0
  8 10  1  0  0  0  0
 11 12  2  0  0  0  0
 11 33  1  0  0  0  0
 12 34  1  0  0  0  0
 13 14  2  0  0  0  0
 13 18  1  0  0  0  0
 14 15  1  0  0  0  0
 14 35  1  0  0  0  0
 15 16  2  0  0  0  0
 15 36  1  0  0  0  0
 16 17  1  0  0  0  0
 16 24  1  0  0  0  0
 17 18  2  0  0  0  0
 17 19  1  0  0  0  0
 18 37  1  0  0  0  0
 19 20  1  0  0  0  0
 19 21  1  0  0  0  0
 19 22  1  0  0  0  0
 20 38  1  0  0  0  0
 20 39  1  0  0  0  0
 20 40  1  0  0  0  0
 21 41  1  0  0  0  0
 21 42  1  0  0  0  0
 21 43  1  0  0  0  0
 22 23  1  0  0  0  0
 22 44  1  0  0  0  0
 22 45  1  0  0  0  0
 23 24  1  0  0  0  0
 23 46  1  0  0  0  0
 23 47  1  0  0  0  0
 24 25  1  0  0  0  0
 24 26  1  0  0  0  0
 25 48  1  0  0  0  0
 25 49  1  0  0  0  0
 25 50  1  0  0  0  0
 26 51  1  0  0  0  0
 26 52  1  0  0  0  0
 26 53  1  0  0  0  0
M  END
$$$$
