U0E
 OpenBabel04041914503D

 95 95  0  0  1  0  0  0  0  0999 V2000
  -10.0599   15.6699   32.1430 C   0  0  0  0  0  0  0  0  0  0  0  0
   -9.9360   15.3260   30.6818 C   0  0  0  0  0  0  0  0  0  0  0  0
  -10.7588   16.0756   28.4264 C   0  0  1  0  0  0  0  0  0  0  0  0
  -12.2712   15.9730   28.1258 C   0  0  0  0  0  0  0  0  0  0  0  0
  -12.9283   14.7685   28.7961 C   0  0  0  0  0  0  0  0  0  0  0  0
  -14.4280   15.0213   28.9665 C   0  0  0  0  0  0  0  0  0  0  0  0
  -15.0797   13.8434   29.6755 C   0  0  0  0  0  0  0  0  0  0  0  0
  -14.8495   12.5513   28.9007 C   0  0  0  0  0  0  0  0  0  0  0  0
  -13.3616   12.2917   28.6871 C   0  0  0  0  0  0  0  0  0  0  0  0
  -12.6845   13.4789   28.0095 C   0  0  0  0  0  0  0  0  0  0  0  0
  -10.1602   17.2727   27.6237 C   0  0  2  0  0  0  0  0  0  0  0  0
   -8.7056   17.6001   27.9977 C   0  0  0  0  0  0  0  0  0  0  0  0
   -7.8625   18.2930   26.9007 C   0  0  1  0  0  0  0  0  0  0  0  0
   -6.4772   18.7288   27.4702 C   0  0  0  0  0  0  0  0  0  0  0  0
   -5.4573   17.5874   27.5230 C   0  0  0  0  0  0  0  0  0  0  0  0
   -5.8352   19.8523   26.6575 C   0  0  0  0  0  0  0  0  0  0  0  0
   -7.6448   17.3018   25.7706 C   0  0  0  0  0  0  0  0  0  0  0  0
   -7.6508   17.0115   23.3377 C   0  0  1  0  0  0  0  0  0  0  0  0
   -8.9957   16.7597   22.6742 C   0  0  0  0  0  0  0  0  0  0  0  0
   -8.8682   15.8047   21.4816 C   0  0  0  0  0  0  0  0  0  0  0  0
   -8.7248   16.5832   20.1927 C   0  0  0  0  0  0  0  0  0  0  0  0
   -6.7106   17.7653   22.4007 C   0  0  0  0  0  0  0  0  0  0  0  0
   -4.5449   17.5443   21.1962 C   0  0  2  0  0  0  0  0  0  0  0  0
   -4.5361   16.6877   19.9305 C   0  0  0  0  0  0  0  0  0  0  0  0
   -3.1926   17.4767   21.9146 C   0  0  0  0  0  0  0  0  0  0  0  0
   -2.2476   18.6264   21.5538 C   0  0  0  0  0  0  0  0  0  0  0  0
   -1.7706   19.3981   22.7866 C   0  0  0  0  0  0  0  0  0  0  0  0
    0.4686   19.9849   23.7014 C   0  0  0  0  0  0  0  0  0  0  0  0
  -10.5777   16.2388   29.8707 N   0  0  0  0  0  0  0  0  0  0  0  0
   -7.8268   17.8259   24.5238 N   0  0  0  0  0  0  0  0  0  0  0  0
   -8.0519   15.9382   19.1992 N   0  0  0  0  0  0  0  0  0  0  0  0
   -5.5681   17.0616   22.0975 N   0  0  0  0  0  0  0  0  0  0  0  0
   -4.0690   17.2695   18.7894 N   0  0  0  0  0  0  0  0  0  0  0  0
   -0.3704   19.0871   23.1473 N   0  0  0  0  0  0  0  0  0  0  0  0
    0.0696   21.2091   24.0378 N   0  0  0  0  0  0  0  0  0  0  0  0
    1.7486   19.6830   23.9242 N   0  0  0  0  0  0  0  0  0  0  0  0
   -9.3346   14.3379   30.2794 O   0  0  0  0  0  0  0  0  0  0  0  0
  -10.9145   18.4707   27.8713 O   0  0  0  0  0  0  0  0  0  0  0  0
   -7.2785   16.1409   25.9494 O   0  0  0  0  0  0  0  0  0  0  0  0
   -9.1873   17.6942   19.9969 O   0  0  0  0  0  0  0  0  0  0  0  0
   -6.9163   18.9130   22.0091 O   0  0  0  0  0  0  0  0  0  0  0  0
   -4.8442   15.5182   19.9432 O   0  0  0  0  0  0  0  0  0  0  0  0
   -9.5295   14.9261   32.7446 H   0  0  0  0  0  0  0  0  0  0  0  0
  -11.1134   15.6762   32.4397 H   0  0  0  0  0  0  0  0  0  0  0  0
   -9.6237   16.6564   32.3268 H   0  0  0  0  0  0  0  0  0  0  0  0
  -10.2638   15.1505   28.1039 H   0  0  0  0  0  0  0  0  0  0  0  0
  -12.4400   15.9479   27.0403 H   0  0  0  0  0  0  0  0  0  0  0  0
  -12.7763   16.8727   28.5006 H   0  0  0  0  0  0  0  0  0  0  0  0
  -12.5055   14.6442   29.7987 H   0  0  0  0  0  0  0  0  0  0  0  0
  -14.8953   15.1721   27.9856 H   0  0  0  0  0  0  0  0  0  0  0  0
  -14.5917   15.9350   29.5509 H   0  0  0  0  0  0  0  0  0  0  0  0
  -16.1517   14.0286   29.7875 H   0  0  0  0  0  0  0  0  0  0  0  0
  -14.6529   13.7460   30.6818 H   0  0  0  0  0  0  0  0  0  0  0  0
  -15.3482   12.6200   27.9263 H   0  0  0  0  0  0  0  0  0  0  0  0
  -15.2987   11.7128   29.4422 H   0  0  0  0  0  0  0  0  0  0  0  0
  -13.2261   11.3921   28.0780 H   0  0  0  0  0  0  0  0  0  0  0  0
  -12.8822   12.1058   29.6562 H   0  0  0  0  0  0  0  0  0  0  0  0
  -11.6109   13.2832   27.9229 H   0  0  0  0  0  0  0  0  0  0  0  0
  -13.0801   13.5862   26.9915 H   0  0  0  0  0  0  0  0  0  0  0  0
  -10.2524   17.0355   26.5577 H   0  0  0  0  0  0  0  0  0  0  0  0
   -8.1995   16.6762   28.2845 H   0  0  0  0  0  0  0  0  0  0  0  0
   -8.7278   18.2786   28.8589 H   0  0  0  0  0  0  0  0  0  0  0  0
   -8.3918   19.1836   26.5313 H   0  0  0  0  0  0  0  0  0  0  0  0
   -6.6289   19.1013   28.4917 H   0  0  0  0  0  0  0  0  0  0  0  0
   -4.5066   17.9296   27.9368 H   0  0  0  0  0  0  0  0  0  0  0  0
   -5.2315   17.2213   26.5138 H   0  0  0  0  0  0  0  0  0  0  0  0
   -5.8283   16.7563   28.1268 H   0  0  0  0  0  0  0  0  0  0  0  0
   -6.4913   20.7229   26.5928 H   0  0  0  0  0  0  0  0  0  0  0  0
   -5.5927   19.5154   25.6445 H   0  0  0  0  0  0  0  0  0  0  0  0
   -4.8983   20.1686   27.1333 H   0  0  0  0  0  0  0  0  0  0  0  0
   -7.1979   16.0540   23.6212 H   0  0  0  0  0  0  0  0  0  0  0  0
   -9.4286   17.7162   22.3684 H   0  0  0  0  0  0  0  0  0  0  0  0
   -9.6768   16.3225   23.4148 H   0  0  0  0  0  0  0  0  0  0  0  0
   -9.7827   15.2126   21.4076 H   0  0  0  0  0  0  0  0  0  0  0  0
   -8.0306   15.1169   21.6197 H   0  0  0  0  0  0  0  0  0  0  0  0
   -4.7889   18.6005   20.9263 H   0  0  0  0  0  0  0  0  0  0  0  0
   -2.7017   16.5264   21.6674 H   0  0  0  0  0  0  0  0  0  0  0  0
   -3.3620   17.4583   22.9981 H   0  0  0  0  0  0  0  0  0  0  0  0
   -2.7613   19.3310   20.8890 H   0  0  0  0  0  0  0  0  0  0  0  0
   -1.3894   18.2310   21.0004 H   0  0  0  0  0  0  0  0  0  0  0  0
   -2.3916   19.1902   23.6624 H   0  0  0  0  0  0  0  0  0  0  0  0
   -1.8439   20.4634   22.5522 H   0  0  0  0  0  0  0  0  0  0  0  0
  -11.0150   17.0381   30.3110 H   0  0  0  0  0  0  0  0  0  0  0  0
   -8.1454   18.7817   24.4179 H   0  0  0  0  0  0  0  0  0  0  0  0
   -7.9455   16.4349   18.3233 H   0  0  0  0  0  0  0  0  0  0  0  0
   -7.6289   15.0227   19.2843 H   0  0  0  0  0  0  0  0  0  0  0  0
   -5.4801   16.1082   22.4346 H   0  0  0  0  0  0  0  0  0  0  0  0
   -4.0842   16.6980   17.9461 H   0  0  0  0  0  0  0  0  0  0  0  0
   -3.8775   18.2550   18.6854 H   0  0  0  0  0  0  0  0  0  0  0  0
   -0.0164   18.1565   22.9563 H   0  0  0  0  0  0  0  0  0  0  0  0
    0.7069   21.8724   24.4559 H   0  0  0  0  0  0  0  0  0  0  0  0
   -0.8876   21.5065   23.9191 H   0  0  0  0  0  0  0  0  0  0  0  0
    2.1579   18.7917   23.6899 H   0  0  0  0  0  0  0  0  0  0  0  0
  -11.8503   18.2934   27.6773 H   0  0  0  0  0  0  0  0  0  0  0  0
    2.3718   20.3759   24.3340 H   0  0  0  0  0  0  0  0  0  0  0  0
  1  2  1  0  0  0  0
  1 43  1  0  0  0  0
  1 44  1  0  0  0  0
  1 45  1  0  0  0  0
  2 29  1  0  0  0  0
  2 37  2  0  0  0  0
  3  4  1  0  0  0  0
  3 11  1  0  0  0  0
  3 29  1  0  0  0  0
  3 46  1  6  0  0  0
  4  5  1  0  0  0  0
  4 47  1  0  0  0  0
  4 48  1  0  0  0  0
  5  6  1  0  0  0  0
  5 10  1  0  0  0  0
  5 49  1  0  0  0  0
  6  7  1  0  0  0  0
  6 50  1  0  0  0  0
  6 51  1  0  0  0  0
  7  8  1  0  0  0  0
  7 52  1  0  0  0  0
  7 53  1  0  0  0  0
  8  9  1  0  0  0  0
  8 54  1  0  0  0  0
  8 55  1  0  0  0  0
  9 10  1  0  0  0  0
  9 56  1  0  0  0  0
  9 57  1  0  0  0  0
 10 58  1  0  0  0  0
 10 59  1  0  0  0  0
 11 12  1  0  0  0  0
 11 38  1  0  0  0  0
 11 60  1  6  0  0  0
 12 13  1  0  0  0  0
 12 61  1  0  0  0  0
 12 62  1  0  0  0  0
 13 14  1  0  0  0  0
 13 17  1  0  0  0  0
 13 63  1  6  0  0  0
 14 15  1  0  0  0  0
 14 16  1  0  0  0  0
 14 64  1  0  0  0  0
 15 65  1  0  0  0  0
 15 66  1  0  0  0  0
 15 67  1  0  0  0  0
 16 68  1  0  0  0  0
 16 69  1  0  0  0  0
 16 70  1  0  0  0  0
 17 30  1  0  0  0  0
 17 39  2  0  0  0  0
 18 19  1  0  0  0  0
 18 22  1  0  0  0  0
 18 30  1  0  0  0  0
 18 71  1  1  0  0  0
 19 20  1  0  0  0  0
 19 72  1  0  0  0  0
 19 73  1  0  0  0  0
 20 21  1  0  0  0  0
 20 74  1  0  0  0  0
 20 75  1  0  0  0  0
 21 31  1  0  0  0  0
 21 40  2  0  0  0  0
 22 32  1  0  0  0  0
 22 41  2  0  0  0  0
 23 24  1  0  0  0  0
 23 25  1  0  0  0  0
 23 32  1  0  0  0  0
 23 76  1  6  0  0  0
 24 33  1  0  0  0  0
 24 42  2  0  0  0  0
 25 26  1  0  0  0  0
 25 77  1  0  0  0  0
 25 78  1  0  0  0  0
 26 27  1  0  0  0  0
 26 79  1  0  0  0  0
 26 80  1  0  0  0  0
 27 34  1  0  0  0  0
 27 81  1  0  0  0  0
 27 82  1  0  0  0  0
 28 36  2  0  0  0  0
 28 35  1  0  0  0  0
 28 34  1  0  0  0  0
 29 83  1  0  0  0  0
 30 84  1  0  0  0  0
 31 85  1  0  0  0  0
 31 86  1  0  0  0  0
 32 87  1  0  0  0  0
 33 88  1  0  0  0  0
 33 89  1  0  0  0  0
 34 90  1  0  0  0  0
 35 91  1  0  0  0  0
 35 92  1  0  0  0  0
 36 93  1  0  0  0  0
 36 95  1  0  0  0  0
 38 94  1  0  0  0  0
M  END
$$$$
