U0E
 OpenBabel04041914503D

 95 95  0  0  1  0  0  0  0  0999 V2000
  -10.6555   15.8436   32.1785 C   0  0  0  0  0  0  0  0  0  0  0  0
  -10.2627   15.5292   30.7709 C   0  0  0  0  0  0  0  0  0  0  0  0
  -10.8749   15.9872   28.3765 C   0  0  1  0  0  0  0  0  0  0  0  0
  -12.1833   15.6971   27.6379 C   0  0  0  0  0  0  0  0  0  0  0  0
  -13.0299   14.4990   28.0454 C   0  0  0  0  0  0  0  0  0  0  0  0
  -12.1835   13.2527   28.2817 C   0  0  0  0  0  0  0  0  0  0  0  0
  -13.0656   12.0691   28.6456 C   0  0  0  0  0  0  0  0  0  0  0  0
  -13.9158   12.3787   29.8734 C   0  0  0  0  0  0  0  0  0  0  0  0
  -14.7654   13.6265   29.6579 C   0  0  0  0  0  0  0  0  0  0  0  0
  -13.9023   14.8162   29.2642 C   0  0  0  0  0  0  0  0  0  0  0  0
  -10.3723   17.3165   27.7417 C   0  0  2  0  0  0  0  0  0  0  0  0
   -8.8695   17.5274   27.8750 C   0  0  0  0  0  0  0  0  0  0  0  0
   -8.1838   18.2015   26.6638 C   0  0  1  0  0  0  0  0  0  0  0  0
   -6.8657   18.8814   27.1470 C   0  0  0  0  0  0  0  0  0  0  0  0
   -5.6697   17.9317   27.1739 C   0  0  0  0  0  0  0  0  0  0  0  0
   -6.4746   20.0872   26.2991 C   0  0  0  0  0  0  0  0  0  0  0  0
   -7.8674   17.1268   25.6158 C   0  0  0  0  0  0  0  0  0  0  0  0
   -7.5673   16.7741   23.1987 C   0  0  1  0  0  0  0  0  0  0  0  0
   -8.8500   16.3734   22.4698 C   0  0  0  0  0  0  0  0  0  0  0  0
   -9.2559   17.3338   21.3526 C   0  0  0  0  0  0  0  0  0  0  0  0
   -8.7646   16.9572   19.9478 C   0  0  0  0  0  0  0  0  0  0  0  0
   -6.6020   17.5679   22.3191 C   0  0  0  0  0  0  0  0  0  0  0  0
   -4.6390   17.3885   20.8402 C   0  0  2  0  0  0  0  0  0  0  0  0
   -4.6178   16.5155   19.5727 C   0  0  0  0  0  0  0  0  0  0  0  0
   -3.2557   17.4099   21.4953 C   0  0  0  0  0  0  0  0  0  0  0  0
   -3.0538   18.6356   22.3966 C   0  0  0  0  0  0  0  0  0  0  0  0
   -1.5878   18.8132   22.8087 C   0  0  0  0  0  0  0  0  0  0  0  0
    0.3323   20.2829   22.2279 C   0  0  0  0  0  0  0  0  0  0  0  0
  -11.0772   16.1102   29.8210 N   0  0  0  0  0  0  0  0  0  0  0  0
   -7.9045   17.6095   24.3325 N   0  0  0  0  0  0  0  0  0  0  0  0
   -8.2765   15.7121   19.7775 N   0  0  0  0  0  0  0  0  0  0  0  0
   -5.5918   16.8308   21.7788 N   0  0  0  0  0  0  0  0  0  0  0  0
   -3.9572   17.0205   18.4888 N   0  0  0  0  0  0  0  0  0  0  0  0
   -0.9882   20.0244   22.2030 N   0  0  0  0  0  0  0  0  0  0  0  0
    1.1309   19.7542   23.1522 N   0  0  0  0  0  0  0  0  0  0  0  0
    0.8955   21.0741   21.3116 N   0  0  0  0  0  0  0  0  0  0  0  0
   -9.3227   14.7908   30.4980 O   0  0  0  0  0  0  0  0  0  0  0  0
  -11.0724   18.3964   28.3854 O   0  0  0  0  0  0  0  0  0  0  0  0
   -7.5244   15.9883   25.8724 O   0  0  0  0  0  0  0  0  0  0  0  0
   -8.8083   17.7424   19.0207 O   0  0  0  0  0  0  0  0  0  0  0  0
   -6.7368   18.7750   22.0775 O   0  0  0  0  0  0  0  0  0  0  0  0
   -5.0816   15.3772   19.5374 O   0  0  0  0  0  0  0  0  0  0  0  0
   -9.9796   15.3147   32.8659 H   0  0  0  0  0  0  0  0  0  0  0  0
  -11.6819   15.5073   32.3761 H   0  0  0  0  0  0  0  0  0  0  0  0
  -10.5713   16.9187   32.3624 H   0  0  0  0  0  0  0  0  0  0  0  0
  -10.1472   15.1821   28.1899 H   0  0  0  0  0  0  0  0  0  0  0  0
  -11.9165   15.5588   26.5818 H   0  0  0  0  0  0  0  0  0  0  0  0
  -12.8121   16.5942   27.6913 H   0  0  0  0  0  0  0  0  0  0  0  0
  -13.7098   14.2981   27.2032 H   0  0  0  0  0  0  0  0  0  0  0  0
  -11.4803   13.4299   29.1020 H   0  0  0  0  0  0  0  0  0  0  0  0
  -11.5935   13.0223   27.3879 H   0  0  0  0  0  0  0  0  0  0  0  0
  -12.4392   11.1928   28.8365 H   0  0  0  0  0  0  0  0  0  0  0  0
  -13.7201   11.8336   27.7980 H   0  0  0  0  0  0  0  0  0  0  0  0
  -13.2605   12.5310   30.7405 H   0  0  0  0  0  0  0  0  0  0  0  0
  -14.5636   11.5257   30.0966 H   0  0  0  0  0  0  0  0  0  0  0  0
  -15.3176   13.8629   30.5739 H   0  0  0  0  0  0  0  0  0  0  0  0
  -15.5023   13.4374   28.8691 H   0  0  0  0  0  0  0  0  0  0  0  0
  -14.5391   15.6843   29.0574 H   0  0  0  0  0  0  0  0  0  0  0  0
  -13.2748   15.0750   30.1196 H   0  0  0  0  0  0  0  0  0  0  0  0
  -10.6649   17.3307   26.6835 H   0  0  0  0  0  0  0  0  0  0  0  0
   -8.3924   16.5594   28.0334 H   0  0  0  0  0  0  0  0  0  0  0  0
   -8.7088   18.1506   28.7562 H   0  0  0  0  0  0  0  0  0  0  0  0
   -8.8420   18.9659   26.2256 H   0  0  0  0  0  0  0  0  0  0  0  0
   -7.0250   19.2541   28.1695 H   0  0  0  0  0  0  0  0  0  0  0  0
   -4.7767   18.4454   27.5399 H   0  0  0  0  0  0  0  0  0  0  0  0
   -5.4368   17.5763   26.1633 H   0  0  0  0  0  0  0  0  0  0  0  0
   -5.8665   17.0697   27.8157 H   0  0  0  0  0  0  0  0  0  0  0  0
   -7.2814   20.8225   26.2585 H   0  0  0  0  0  0  0  0  0  0  0  0
   -6.2184   19.7811   25.2813 H   0  0  0  0  0  0  0  0  0  0  0  0
   -5.5934   20.5760   26.7334 H   0  0  0  0  0  0  0  0  0  0  0  0
   -7.0625   15.8667   23.5538 H   0  0  0  0  0  0  0  0  0  0  0  0
   -9.6787   16.3096   23.1869 H   0  0  0  0  0  0  0  0  0  0  0  0
   -8.7348   15.3501   22.1172 H   0  0  0  0  0  0  0  0  0  0  0  0
   -8.8898   18.3426   21.5540 H   0  0  0  0  0  0  0  0  0  0  0  0
  -10.3358   17.4189   21.2990 H   0  0  0  0  0  0  0  0  0  0  0  0
   -4.9437   18.4037   20.5463 H   0  0  0  0  0  0  0  0  0  0  0  0
   -2.4811   17.3967   20.7242 H   0  0  0  0  0  0  0  0  0  0  0  0
   -3.1275   16.4989   22.0984 H   0  0  0  0  0  0  0  0  0  0  0  0
   -3.6627   18.5107   23.3009 H   0  0  0  0  0  0  0  0  0  0  0  0
   -3.4125   19.5307   21.8787 H   0  0  0  0  0  0  0  0  0  0  0  0
   -0.9953   17.9532   22.4763 H   0  0  0  0  0  0  0  0  0  0  0  0
   -1.5224   18.9065   23.8962 H   0  0  0  0  0  0  0  0  0  0  0  0
  -11.8051   16.7464   30.1324 H   0  0  0  0  0  0  0  0  0  0  0  0
   -8.1751   18.5711   24.1503 H   0  0  0  0  0  0  0  0  0  0  0  0
   -7.9194   15.4439   18.8594 H   0  0  0  0  0  0  0  0  0  0  0  0
   -8.1451   14.9928   20.4794 H   0  0  0  0  0  0  0  0  0  0  0  0
   -5.5435   15.8354   21.9758 H   0  0  0  0  0  0  0  0  0  0  0  0
   -3.9590   16.4517   17.6465 H   0  0  0  0  0  0  0  0  0  0  0  0
   -3.5870   17.9547   18.4312 H   0  0  0  0  0  0  0  0  0  0  0  0
   -1.5892   20.7014   21.7451 H   0  0  0  0  0  0  0  0  0  0  0  0
    2.1179   19.9769   23.1759 H   0  0  0  0  0  0  0  0  0  0  0  0
    0.7564   19.2105   23.9174 H   0  0  0  0  0  0  0  0  0  0  0  0
    0.3810   21.4565   20.5291 H   0  0  0  0  0  0  0  0  0  0  0  0
  -10.8073   19.2259   27.9602 H   0  0  0  0  0  0  0  0  0  0  0  0
    1.8992   21.2205   21.3122 H   0  0  0  0  0  0  0  0  0  0  0  0
  1  2  1  0  0  0  0
  1 43  1  0  0  0  0
  1 44  1  0  0  0  0
  1 45  1  0  0  0  0
  2 29  1  0  0  0  0
  2 37  2  0  0  0  0
  3  4  1  0  0  0  0
  3 11  1  0  0  0  0
  3 29  1  0  0  0  0
  3 46  1  6  0  0  0
  4  5  1  0  0  0  0
  4 47  1  0  0  0  0
  4 48  1  0  0  0  0
  5  6  1  0  0  0  0
  5 10  1  0  0  0  0
  5 49  1  0  0  0  0
  6  7  1  0  0  0  0
  6 50  1  0  0  0  0
  6 51  1  0  0  0  0
  7  8  1  0  0  0  0
  7 52  1  0  0  0  0
  7 53  1  0  0  0  0
  8  9  1  0  0  0  0
  8 54  1  0  0  0  0
  8 55  1  0  0  0  0
  9 10  1  0  0  0  0
  9 56  1  0  0  0  0
  9 57  1  0  0  0  0
 10 58  1  0  0  0  0
 10 59  1  0  0  0  0
 11 12  1  0  0  0  0
 11 38  1  0  0  0  0
 11 60  1  6  0  0  0
 12 13  1  0  0  0  0
 12 61  1  0  0  0  0
 12 62  1  0  0  0  0
 13 14  1  0  0  0  0
 13 17  1  0  0  0  0
 13 63  1  6  0  0  0
 14 15  1  0  0  0  0
 14 16  1  0  0  0  0
 14 64  1  0  0  0  0
 15 65  1  0  0  0  0
 15 66  1  0  0  0  0
 15 67  1  0  0  0  0
 16 68  1  0  0  0  0
 16 69  1  0  0  0  0
 16 70  1  0  0  0  0
 17 30  1  0  0  0  0
 17 39  2  0  0  0  0
 18 19  1  0  0  0  0
 18 22  1  0  0  0  0
 18 30  1  0  0  0  0
 18 71  1  1  0  0  0
 19 20  1  0  0  0  0
 19 72  1  0  0  0  0
 19 73  1  0  0  0  0
 20 21  1  0  0  0  0
 20 74  1  0  0  0  0
 20 75  1  0  0  0  0
 21 31  1  0  0  0  0
 21 40  2  0  0  0  0
 22 32  1  0  0  0  0
 22 41  2  0  0  0  0
 23 24  1  0  0  0  0
 23 25  1  0  0  0  0
 23 32  1  0  0  0  0
 23 76  1  6  0  0  0
 24 33  1  0  0  0  0
 24 42  2  0  0  0  0
 25 26  1  0  0  0  0
 25 77  1  0  0  0  0
 25 78  1  0  0  0  0
 26 27  1  0  0  0  0
 26 79  1  0  0  0  0
 26 80  1  0  0  0  0
 27 34  1  0  0  0  0
 27 81  1  0  0  0  0
 27 82  1  0  0  0  0
 28 36  2  0  0  0  0
 28 35  1  0  0  0  0
 28 34  1  0  0  0  0
 29 83  1  0  0  0  0
 30 84  1  0  0  0  0
 31 85  1  0  0  0  0
 31 86  1  0  0  0  0
 32 87  1  0  0  0  0
 33 88  1  0  0  0  0
 33 89  1  0  0  0  0
 34 90  1  0  0  0  0
 35 91  1  0  0  0  0
 35 92  1  0  0  0  0
 36 93  1  0  0  0  0
 36 95  1  0  0  0  0
 38 94  1  0  0  0  0
M  END
$$$$
