U0E
 OpenBabel04041913533D

 95 95  0  0  1  0  0  0  0  0999 V2000
   45.5850   23.0855   66.3325 C   0  0  0  0  0  0  0  0  0  0  0  0
   44.6137   22.2320   65.6150 C   0  0  0  0  0  0  0  0  0  0  0  0
   44.3516   19.9649   64.7346 C   0  0  1  0  0  0  0  0  0  0  0  0
   45.3344   19.2599   63.8298 C   0  0  0  0  0  0  0  0  0  0  0  0
   45.9474   19.9902   62.6395 C   0  0  0  0  0  0  0  0  0  0  0  0
   45.1506   21.1940   62.1747 C   0  0  0  0  0  0  0  0  0  0  0  0
   45.7443   21.7683   60.9039 C   0  0  0  0  0  0  0  0  0  0  0  0
   47.2189   22.1158   61.0788 C   0  0  0  0  0  0  0  0  0  0  0  0
   48.0498   20.9965   61.7011 C   0  0  0  0  0  0  0  0  0  0  0  0
   47.3886   20.4064   62.9345 C   0  0  0  0  0  0  0  0  0  0  0  0
   43.6430   18.8924   65.6093 C   0  0  2  0  0  0  0  0  0  0  0  0
   42.8004   19.5126   66.7108 C   0  0  0  0  0  0  0  0  0  0  0  0
   41.4629   18.7998   66.8710 C   0  0  1  0  0  0  0  0  0  0  0  0
   40.5587   19.6077   67.8341 C   0  0  0  0  0  0  0  0  0  0  0  0
   39.9928   20.8769   67.2039 C   0  0  0  0  0  0  0  0  0  0  0  0
   39.4291   18.7537   68.3825 C   0  0  0  0  0  0  0  0  0  0  0  0
   40.8369   18.6100   65.4907 C   0  0  0  0  0  0  0  0  0  0  0  0
   39.3964   17.1147   64.2413 C   0  0  1  0  0  0  0  0  0  0  0  0
   39.9702   16.7993   62.8662 C   0  0  0  0  0  0  0  0  0  0  0  0
   40.0493   15.3240   62.4950 C   0  0  0  0  0  0  0  0  0  0  0  0
   38.7353   14.7785   61.9930 C   0  0  0  0  0  0  0  0  0  0  0  0
   38.4320   16.0780   64.7869 C   0  0  0  0  0  0  0  0  0  0  0  0
   36.0888   15.3960   64.7624 C   0  0  2  0  0  0  0  0  0  0  0  0
   35.1851   15.2457   63.5488 C   0  0  0  0  0  0  0  0  0  0  0  0
   35.3262   16.0593   65.9025 C   0  0  0  0  0  0  0  0  0  0  0  0
   35.9928   15.8506   67.2611 C   0  0  0  0  0  0  0  0  0  0  0  0
   35.9558   17.1268   68.0764 C   0  0  0  0  0  0  0  0  0  0  0  0
   34.3111   17.2196   69.9139 C   0  0  0  0  0  0  0  0  0  0  0  0
   45.0543   20.9255   65.5558 N   0  0  0  0  0  0  0  0  0  0  0  0
   40.4059   17.3363   65.2490 N   0  0  0  0  0  0  0  0  0  0  0  0
   38.1590   15.4771   60.9804 N   0  0  0  0  0  0  0  0  0  0  0  0
   37.1630   16.2463   64.3279 N   0  0  0  0  0  0  0  0  0  0  0  0
   34.5521   14.0395   63.5166 N   0  0  0  0  0  0  0  0  0  0  0  0
   35.5123   16.8648   69.4440 N   0  0  0  0  0  0  0  0  0  0  0  0
   33.5350   18.0873   69.2684 N   0  0  0  0  0  0  0  0  0  0  0  0
   33.8654   16.6837   71.0481 N   0  0  0  0  0  0  0  0  0  0  0  0
   43.6316   22.6871   65.0907 O   0  0  0  0  0  0  0  0  0  0  0  0
   44.5728   18.0012   66.2266 O   0  0  0  0  0  0  0  0  0  0  0  0
   40.7360   19.4985   64.6530 O   0  0  0  0  0  0  0  0  0  0  0  0
   38.1996   13.7818   62.4661 O   0  0  0  0  0  0  0  0  0  0  0  0
   38.7609   15.1974   65.5769 O   0  0  0  0  0  0  0  0  0  0  0  0
   34.9834   16.1363   62.7311 O   0  0  0  0  0  0  0  0  0  0  0  0
   46.4234   22.4591   66.6750 H   0  0  0  0  0  0  0  0  0  0  0  0
   45.0294   23.5054   67.1651 H   0  0  0  0  0  0  0  0  0  0  0  0
   45.9313   23.8306   65.6101 H   0  0  0  0  0  0  0  0  0  0  0  0
   43.5735   20.4885   64.1528 H   0  0  0  0  0  0  0  0  0  0  0  0
   44.8158   18.3900   63.4106 H   0  0  0  0  0  0  0  0  0  0  0  0
   46.1662   18.8946   64.4473 H   0  0  0  0  0  0  0  0  0  0  0  0
   45.9862   19.2616   61.8145 H   0  0  0  0  0  0  0  0  0  0  0  0
   45.1703   21.9685   62.9488 H   0  0  0  0  0  0  0  0  0  0  0  0
   44.1111   20.9026   61.9986 H   0  0  0  0  0  0  0  0  0  0  0  0
   45.1816   22.6665   60.6267 H   0  0  0  0  0  0  0  0  0  0  0  0
   45.6280   21.0390   60.0948 H   0  0  0  0  0  0  0  0  0  0  0  0
   47.2928   23.0023   61.7192 H   0  0  0  0  0  0  0  0  0  0  0  0
   47.6399   22.3712   60.1015 H   0  0  0  0  0  0  0  0  0  0  0  0
   49.0373   21.3815   61.9821 H   0  0  0  0  0  0  0  0  0  0  0  0
   48.2049   20.1985   60.9648 H   0  0  0  0  0  0  0  0  0  0  0  0
   47.9673   19.5366   63.2697 H   0  0  0  0  0  0  0  0  0  0  0  0
   47.3977   21.1506   63.7395 H   0  0  0  0  0  0  0  0  0  0  0  0
   43.0428   18.2864   64.9330 H   0  0  0  0  0  0  0  0  0  0  0  0
   42.6119   20.5609   66.4743 H   0  0  0  0  0  0  0  0  0  0  0  0
   43.3411   19.4662   67.6619 H   0  0  0  0  0  0  0  0  0  0  0  0
   41.6502   17.8132   67.3159 H   0  0  0  0  0  0  0  0  0  0  0  0
   41.1632   19.9180   68.6945 H   0  0  0  0  0  0  0  0  0  0  0  0
   39.3567   21.4147   67.9122 H   0  0  0  0  0  0  0  0  0  0  0  0
   39.3867   20.6466   66.3226 H   0  0  0  0  0  0  0  0  0  0  0  0
   40.8019   21.5470   66.9038 H   0  0  0  0  0  0  0  0  0  0  0  0
   39.8313   17.8479   68.8462 H   0  0  0  0  0  0  0  0  0  0  0  0
   38.7444   18.4673   67.5812 H   0  0  0  0  0  0  0  0  0  0  0  0
   38.8668   19.3035   69.1457 H   0  0  0  0  0  0  0  0  0  0  0  0
   38.8287   18.0542   64.1638 H   0  0  0  0  0  0  0  0  0  0  0  0
   40.9819   17.2149   62.8075 H   0  0  0  0  0  0  0  0  0  0  0  0
   39.3620   17.3340   62.1293 H   0  0  0  0  0  0  0  0  0  0  0  0
   40.3634   14.7282   63.3559 H   0  0  0  0  0  0  0  0  0  0  0  0
   40.7915   15.1937   61.6967 H   0  0  0  0  0  0  0  0  0  0  0  0
   36.4609   14.4119   65.0718 H   0  0  0  0  0  0  0  0  0  0  0  0
   34.3071   15.6648   65.9607 H   0  0  0  0  0  0  0  0  0  0  0  0
   35.2551   17.1327   65.6845 H   0  0  0  0  0  0  0  0  0  0  0  0
   37.0336   15.5481   67.1463 H   0  0  0  0  0  0  0  0  0  0  0  0
   35.4749   15.0450   67.7946 H   0  0  0  0  0  0  0  0  0  0  0  0
   35.3023   17.8562   67.6041 H   0  0  0  0  0  0  0  0  0  0  0  0
   36.9463   17.5747   68.1217 H   0  0  0  0  0  0  0  0  0  0  0  0
   45.8368   20.6349   66.0924 H   0  0  0  0  0  0  0  0  0  0  0  0
   40.8221   16.5452   65.7290 H   0  0  0  0  0  0  0  0  0  0  0  0
   37.2709   15.1614   60.6129 H   0  0  0  0  0  0  0  0  0  0  0  0
   38.5804   16.3036   60.5819 H   0  0  0  0  0  0  0  0  0  0  0  0
   36.9528   16.9347   63.6080 H   0  0  0  0  0  0  0  0  0  0  0  0
   33.9669   13.8207   62.7262 H   0  0  0  0  0  0  0  0  0  0  0  0
   34.7946   13.3165   64.1788 H   0  0  0  0  0  0  0  0  0  0  0  0
   36.1509   16.3954   70.0758 H   0  0  0  0  0  0  0  0  0  0  0  0
   32.6332   18.3693   69.6229 H   0  0  0  0  0  0  0  0  0  0  0  0
   34.4056   15.9863   71.5444 H   0  0  0  0  0  0  0  0  0  0  0  0
   32.9489   16.9138   71.4110 H   0  0  0  0  0  0  0  0  0  0  0  0
   45.0823   17.5600   65.5182 H   0  0  0  0  0  0  0  0  0  0  0  0
   33.8503   18.5481   68.4291 H   0  0  0  0  0  0  0  0  0  0  0  0
  1  2  1  0  0  0  0
  1 43  1  0  0  0  0
  1 44  1  0  0  0  0
  1 45  1  0  0  0  0
  2 37  2  0  0  0  0
  2 29  1  0  0  0  0
  3 29  1  0  0  0  0
  3 11  1  0  0  0  0
  3  4  1  0  0  0  0
  3 46  1  6  0  0  0
  4  5  1  0  0  0  0
  4 47  1  0  0  0  0
  4 48  1  0  0  0  0
  5 10  1  0  0  0  0
  5  6  1  0  0  0  0
  5 49  1  0  0  0  0
  6  7  1  0  0  0  0
  6 50  1  0  0  0  0
  6 51  1  0  0  0  0
  7  8  1  0  0  0  0
  7 52  1  0  0  0  0
  7 53  1  0  0  0  0
  8  9  1  0  0  0  0
  8 54  1  0  0  0  0
  8 55  1  0  0  0  0
  9 10  1  0  0  0  0
  9 56  1  0  0  0  0
  9 57  1  0  0  0  0
 10 58  1  0  0  0  0
 10 59  1  0  0  0  0
 11 38  1  0  0  0  0
 11 12  1  0  0  0  0
 11 60  1  6  0  0  0
 12 13  1  0  0  0  0
 12 61  1  0  0  0  0
 12 62  1  0  0  0  0
 13 17  1  0  0  0  0
 13 14  1  0  0  0  0
 13 63  1  1  0  0  0
 14 16  1  0  0  0  0
 14 15  1  0  0  0  0
 14 64  1  0  0  0  0
 15 65  1  0  0  0  0
 15 66  1  0  0  0  0
 15 67  1  0  0  0  0
 16 68  1  0  0  0  0
 16 69  1  0  0  0  0
 16 70  1  0  0  0  0
 17 39  2  0  0  0  0
 17 30  1  0  0  0  0
 18 30  1  0  0  0  0
 18 22  1  0  0  0  0
 18 19  1  0  0  0  0
 18 71  1  6  0  0  0
 19 20  1  0  0  0  0
 19 72  1  0  0  0  0
 19 73  1  0  0  0  0
 20 21  1  0  0  0  0
 20 74  1  0  0  0  0
 20 75  1  0  0  0  0
 21 40  2  0  0  0  0
 21 31  1  0  0  0  0
 22 41  2  0  0  0  0
 22 32  1  0  0  0  0
 23 32  1  0  0  0  0
 23 25  1  0  0  0  0
 23 24  1  0  0  0  0
 23 76  1  1  0  0  0
 24 42  2  0  0  0  0
 24 33  1  0  0  0  0
 25 26  1  0  0  0  0
 25 77  1  0  0  0  0
 25 78  1  0  0  0  0
 26 27  1  0  0  0  0
 26 79  1  0  0  0  0
 26 80  1  0  0  0  0
 27 34  1  0  0  0  0
 27 81  1  0  0  0  0
 27 82  1  0  0  0  0
 28 34  1  0  0  0  0
 28 35  2  0  0  0  0
 28 36  1  0  0  0  0
 29 83  1  0  0  0  0
 30 84  1  0  0  0  0
 31 85  1  0  0  0  0
 31 86  1  0  0  0  0
 32 87  1  0  0  0  0
 33 88  1  0  0  0  0
 33 89  1  0  0  0  0
 34 90  1  0  0  0  0
 35 91  1  0  0  0  0
 35 95  1  0  0  0  0
 36 92  1  0  0  0  0
 36 93  1  0  0  0  0
 38 94  1  0  0  0  0
M  END
$$$$
