U0E
 OpenBabel04041914503D

 95 95  0  0  1  0  0  0  0  0999 V2000
   -9.7590   15.5424   31.9848 C   0  0  0  0  0  0  0  0  0  0  0  0
   -9.8347   15.3185   30.5008 C   0  0  0  0  0  0  0  0  0  0  0  0
  -10.8044   16.2336   28.3739 C   0  0  1  0  0  0  0  0  0  0  0  0
  -12.2970   16.0126   28.0922 C   0  0  0  0  0  0  0  0  0  0  0  0
  -12.7713   14.6760   28.6604 C   0  0  0  0  0  0  0  0  0  0  0  0
  -14.2595   14.7242   29.0092 C   0  0  0  0  0  0  0  0  0  0  0  0
  -14.7109   13.3775   29.5637 C   0  0  0  0  0  0  0  0  0  0  0  0
  -14.4254   12.2592   28.5664 C   0  0  0  0  0  0  0  0  0  0  0  0
  -12.9487   12.2062   28.1894 C   0  0  0  0  0  0  0  0  0  0  0  0
  -12.4697   13.5503   27.6635 C   0  0  0  0  0  0  0  0  0  0  0  0
  -10.3413   17.5505   27.7064 C   0  0  2  0  0  0  0  0  0  0  0  0
   -8.8674   17.8101   28.0236 C   0  0  0  0  0  0  0  0  0  0  0  0
   -7.9980   18.2987   26.8531 C   0  0  1  0  0  0  0  0  0  0  0  0
   -6.5609   18.5909   27.3772 C   0  0  0  0  0  0  0  0  0  0  0  0
   -5.8423   17.3323   27.8894 C   0  0  0  0  0  0  0  0  0  0  0  0
   -5.6650   19.2515   26.3286 C   0  0  0  0  0  0  0  0  0  0  0  0
   -7.9344   17.2495   25.7507 C   0  0  0  0  0  0  0  0  0  0  0  0
   -7.6923   16.9404   23.3179 C   0  0  1  0  0  0  0  0  0  0  0  0
   -9.0386   16.7079   22.6385 C   0  0  0  0  0  0  0  0  0  0  0  0
   -8.9098   15.7853   21.4271 C   0  0  0  0  0  0  0  0  0  0  0  0
   -8.7480   16.5723   20.1447 C   0  0  0  0  0  0  0  0  0  0  0  0
   -6.7118   17.6757   22.3955 C   0  0  0  0  0  0  0  0  0  0  0  0
   -4.5140   17.4828   21.2585 C   0  0  2  0  0  0  0  0  0  0  0  0
   -4.4956   16.7155   19.9231 C   0  0  0  0  0  0  0  0  0  0  0  0
   -3.1792   17.2993   21.9937 C   0  0  0  0  0  0  0  0  0  0  0  0
   -2.1638   18.3714   21.5986 C   0  0  0  0  0  0  0  0  0  0  0  0
   -1.0091   18.4434   22.5992 C   0  0  0  0  0  0  0  0  0  0  0  0
    0.0686   20.3315   23.8046 C   0  0  0  0  0  0  0  0  0  0  0  0
  -10.5582   16.2805   29.8254 N   0  0  0  0  0  0  0  0  0  0  0  0
   -7.8508   17.7818   24.4907 N   0  0  0  0  0  0  0  0  0  0  0  0
   -7.9811   15.9865   19.1892 N   0  0  0  0  0  0  0  0  0  0  0  0
   -5.5811   16.9511   22.0948 N   0  0  0  0  0  0  0  0  0  0  0  0
   -5.2340   17.2420   18.9097 N   0  0  0  0  0  0  0  0  0  0  0  0
   -1.0392   19.7060   23.3665 N   0  0  0  0  0  0  0  0  0  0  0  0
    1.2488   19.7130   23.8477 N   0  0  0  0  0  0  0  0  0  0  0  0
    0.0153   21.6063   24.2033 N   0  0  0  0  0  0  0  0  0  0  0  0
   -9.2587   14.3726   29.9457 O   0  0  0  0  0  0  0  0  0  0  0  0
  -11.1216   18.6204   28.2536 O   0  0  0  0  0  0  0  0  0  0  0  0
   -7.8731   16.0434   25.9638 O   0  0  0  0  0  0  0  0  0  0  0  0
   -9.2643   17.6641   19.9283 O   0  0  0  0  0  0  0  0  0  0  0  0
   -6.8842   18.8324   22.0205 O   0  0  0  0  0  0  0  0  0  0  0  0
   -3.9116   15.6493   19.7686 O   0  0  0  0  0  0  0  0  0  0  0  0
   -9.1757   14.7430   32.4538 H   0  0  0  0  0  0  0  0  0  0  0  0
  -10.7691   15.5244   32.4105 H   0  0  0  0  0  0  0  0  0  0  0  0
   -9.2865   16.5031   32.1954 H   0  0  0  0  0  0  0  0  0  0  0  0
  -10.2279   15.4054   27.9448 H   0  0  0  0  0  0  0  0  0  0  0  0
  -12.4716   16.0365   27.0058 H   0  0  0  0  0  0  0  0  0  0  0  0
  -12.8894   16.8343   28.5133 H   0  0  0  0  0  0  0  0  0  0  0  0
  -12.2438   14.4562   29.5953 H   0  0  0  0  0  0  0  0  0  0  0  0
  -14.8468   14.9818   28.1201 H   0  0  0  0  0  0  0  0  0  0  0  0
  -14.4430   15.5051   29.7577 H   0  0  0  0  0  0  0  0  0  0  0  0
  -15.7787   13.4133   29.7963 H   0  0  0  0  0  0  0  0  0  0  0  0
  -14.1801   13.1731   30.5032 H   0  0  0  0  0  0  0  0  0  0  0  0
  -15.0241   12.4223   27.6610 H   0  0  0  0  0  0  0  0  0  0  0  0
  -14.7310   11.2967   28.9897 H   0  0  0  0  0  0  0  0  0  0  0  0
  -12.7821   11.4416   27.4277 H   0  0  0  0  0  0  0  0  0  0  0  0
  -12.3514   11.9276   29.0675 H   0  0  0  0  0  0  0  0  0  0  0  0
  -11.3932   13.4989   27.4604 H   0  0  0  0  0  0  0  0  0  0  0  0
  -12.9638   13.7650   26.7087 H   0  0  0  0  0  0  0  0  0  0  0  0
  -10.5380   17.5033   26.6321 H   0  0  0  0  0  0  0  0  0  0  0  0
   -8.4309   16.8768   28.3886 H   0  0  0  0  0  0  0  0  0  0  0  0
   -8.7994   18.5482   28.8303 H   0  0  0  0  0  0  0  0  0  0  0  0
   -8.4352   19.2207   26.4476 H   0  0  0  0  0  0  0  0  0  0  0  0
   -6.6517   19.2916   28.2176 H   0  0  0  0  0  0  0  0  0  0  0  0
   -4.8536   17.5820   28.2782 H   0  0  0  0  0  0  0  0  0  0  0  0
   -5.6978   16.6046   27.0840 H   0  0  0  0  0  0  0  0  0  0  0  0
   -6.3936   16.8416   28.6956 H   0  0  0  0  0  0  0  0  0  0  0  0
   -6.1147   20.1681   25.9412 H   0  0  0  0  0  0  0  0  0  0  0  0
   -5.4652   18.5743   25.4926 H   0  0  0  0  0  0  0  0  0  0  0  0
   -4.6973   19.5065   26.7738 H   0  0  0  0  0  0  0  0  0  0  0  0
   -7.2636   15.9802   23.6255 H   0  0  0  0  0  0  0  0  0  0  0  0
   -9.4803   17.6752   22.3666 H   0  0  0  0  0  0  0  0  0  0  0  0
   -9.7218   16.2535   23.3669 H   0  0  0  0  0  0  0  0  0  0  0  0
   -9.8325   15.1991   21.3185 H   0  0  0  0  0  0  0  0  0  0  0  0
   -8.0834   15.0741   21.5531 H   0  0  0  0  0  0  0  0  0  0  0  0
   -4.7054   18.5433   21.0635 H   0  0  0  0  0  0  0  0  0  0  0  0
   -2.7478   16.3120   21.7844 H   0  0  0  0  0  0  0  0  0  0  0  0
   -3.3420   17.3335   23.0785 H   0  0  0  0  0  0  0  0  0  0  0  0
   -2.6510   19.3489   21.5092 H   0  0  0  0  0  0  0  0  0  0  0  0
   -1.7679   18.1224   20.6043 H   0  0  0  0  0  0  0  0  0  0  0  0
   -0.0727   18.4066   22.0360 H   0  0  0  0  0  0  0  0  0  0  0  0
   -1.0331   17.6143   23.3136 H   0  0  0  0  0  0  0  0  0  0  0  0
  -11.0461   16.9988   30.3460 H   0  0  0  0  0  0  0  0  0  0  0  0
   -7.9645   18.7775   24.3412 H   0  0  0  0  0  0  0  0  0  0  0  0
   -7.8606   16.4917   18.3238 H   0  0  0  0  0  0  0  0  0  0  0  0
   -7.4993   15.1034   19.3056 H   0  0  0  0  0  0  0  0  0  0  0  0
   -5.4692   16.0193   22.4794 H   0  0  0  0  0  0  0  0  0  0  0  0
   -5.2661   16.7145   18.0463 H   0  0  0  0  0  0  0  0  0  0  0  0
   -5.8631   18.0271   19.0276 H   0  0  0  0  0  0  0  0  0  0  0  0
   -1.9306   20.1631   23.5284 H   0  0  0  0  0  0  0  0  0  0  0  0
    2.0791   20.1795   24.1882 H   0  0  0  0  0  0  0  0  0  0  0  0
    1.3359   18.7317   23.6196 H   0  0  0  0  0  0  0  0  0  0  0  0
   -0.8266   22.1637   24.1409 H   0  0  0  0  0  0  0  0  0  0  0  0
  -10.8917   19.4370   27.7932 H   0  0  0  0  0  0  0  0  0  0  0  0
    0.8570   22.0884   24.4967 H   0  0  0  0  0  0  0  0  0  0  0  0
  1  2  1  0  0  0  0
  1 43  1  0  0  0  0
  1 44  1  0  0  0  0
  1 45  1  0  0  0  0
  2 29  1  0  0  0  0
  2 37  2  0  0  0  0
  3  4  1  0  0  0  0
  3 11  1  0  0  0  0
  3 29  1  0  0  0  0
  3 46  1  6  0  0  0
  4  5  1  0  0  0  0
  4 47  1  0  0  0  0
  4 48  1  0  0  0  0
  5  6  1  0  0  0  0
  5 10  1  0  0  0  0
  5 49  1  0  0  0  0
  6  7  1  0  0  0  0
  6 50  1  0  0  0  0
  6 51  1  0  0  0  0
  7  8  1  0  0  0  0
  7 52  1  0  0  0  0
  7 53  1  0  0  0  0
  8  9  1  0  0  0  0
  8 54  1  0  0  0  0
  8 55  1  0  0  0  0
  9 10  1  0  0  0  0
  9 56  1  0  0  0  0
  9 57  1  0  0  0  0
 10 58  1  0  0  0  0
 10 59  1  0  0  0  0
 11 12  1  0  0  0  0
 11 38  1  0  0  0  0
 11 60  1  6  0  0  0
 12 13  1  0  0  0  0
 12 61  1  0  0  0  0
 12 62  1  0  0  0  0
 13 14  1  0  0  0  0
 13 17  1  0  0  0  0
 13 63  1  6  0  0  0
 14 15  1  0  0  0  0
 14 16  1  0  0  0  0
 14 64  1  0  0  0  0
 15 65  1  0  0  0  0
 15 66  1  0  0  0  0
 15 67  1  0  0  0  0
 16 68  1  0  0  0  0
 16 69  1  0  0  0  0
 16 70  1  0  0  0  0
 17 30  1  0  0  0  0
 17 39  2  0  0  0  0
 18 19  1  0  0  0  0
 18 22  1  0  0  0  0
 18 30  1  0  0  0  0
 18 71  1  1  0  0  0
 19 20  1  0  0  0  0
 19 72  1  0  0  0  0
 19 73  1  0  0  0  0
 20 21  1  0  0  0  0
 20 74  1  0  0  0  0
 20 75  1  0  0  0  0
 21 31  1  0  0  0  0
 21 40  2  0  0  0  0
 22 32  1  0  0  0  0
 22 41  2  0  0  0  0
 23 24  1  0  0  0  0
 23 25  1  0  0  0  0
 23 32  1  0  0  0  0
 23 76  1  6  0  0  0
 24 33  1  0  0  0  0
 24 42  2  0  0  0  0
 25 26  1  0  0  0  0
 25 77  1  0  0  0  0
 25 78  1  0  0  0  0
 26 27  1  0  0  0  0
 26 79  1  0  0  0  0
 26 80  1  0  0  0  0
 27 34  1  0  0  0  0
 27 81  1  0  0  0  0
 27 82  1  0  0  0  0
 28 36  2  0  0  0  0
 28 35  1  0  0  0  0
 28 34  1  0  0  0  0
 29 83  1  0  0  0  0
 30 84  1  0  0  0  0
 31 85  1  0  0  0  0
 31 86  1  0  0  0  0
 32 87  1  0  0  0  0
 33 88  1  0  0  0  0
 33 89  1  0  0  0  0
 34 90  1  0  0  0  0
 35 91  1  0  0  0  0
 35 92  1  0  0  0  0
 36 93  1  0  0  0  0
 36 95  1  0  0  0  0
 38 94  1  0  0  0  0
M  END
$$$$
