U3P
 OpenBabel04041916013D

 32 33  0  0  1  0  0  0  0  0999 V2000
   36.4618   -2.1532   11.9555 N   0  3  0  0  0  0  0  0  0  0  0  0
   35.3120   -2.2701   11.2110 C   0  0  0  0  0  0  0  0  0  0  0  0
   34.6482   -3.4604   11.3345 N   0  3  0  0  0  0  0  0  0  0  0  0
   34.9775   -4.5262   12.1205 C   0  0  0  0  0  0  0  0  0  0  0  0
   36.2285   -4.3455   12.8948 C   0  0  0  0  0  0  0  0  0  0  0  0
   36.8656   -3.1991   12.7601 C   0  0  0  0  0  0  0  0  0  0  0  0
   34.8746   -1.3981   10.4644 O   0  0  0  0  0  0  0  0  0  0  0  0
   34.3065   -5.5469   12.1853 O   0  0  0  0  0  0  0  0  0  0  0  0
   38.4870    3.3716   13.0271 P   0  0  0  0  0  0  0  0  0  0  0  0
   37.4408    3.4934   14.1246 O   0  0  0  0  0  0  0  0  0  0  0  0
   38.3256    4.3682   11.8863 O   0  0  0  0  0  0  0  0  0  0  0  0
   39.9140    3.2220   13.5387 O   0  0  0  0  0  0  0  0  0  0  0  0
   39.6357   -1.6994   14.3953 O   0  0  0  0  0  0  0  0  0  0  0  0
   40.3241   -0.9293   13.4030 C   0  0  0  0  0  0  0  0  0  0  0  0
   39.3809   -0.1925   12.4513 C   0  0  1  0  0  0  0  0  0  0  0  0
   38.6208   -1.2105   11.7290 O   0  0  0  0  0  0  0  0  0  0  0  0
   38.3954    0.7567   13.1393 C   0  0  1  0  0  0  0  0  0  0  0  0
   38.2221    1.9108   12.3189 O   0  0  0  0  0  0  0  0  0  0  0  0
   37.1107   -0.0491   13.1644 C   0  0  1  0  0  0  0  0  0  0  0  0
   35.9323    0.7451   13.1494 O   0  0  0  0  0  0  0  0  0  0  0  0
   37.2293   -0.8942   11.8953 C   0  0  2  0  0  0  0  0  0  0  0  0
   33.8027   -3.5547   10.7912 H   0  0  0  0  0  0  0  0  0  0  0  0
   36.5666   -5.1444   13.5341 H   0  0  0  0  0  0  0  0  0  0  0  0
   37.7685   -3.0895   13.3230 H   0  0  0  0  0  0  0  0  0  0  0  0
   39.0988   -2.3252   13.9012 H   0  0  0  0  0  0  0  0  0  0  0  0
   40.9690   -1.6181   12.8332 H   0  0  0  0  0  0  0  0  0  0  0  0
   40.9594   -0.2157   13.9282 H   0  0  0  0  0  0  0  0  0  0  0  0
   40.0034    0.3481   11.7306 H   0  0  0  0  0  0  0  0  0  0  0  0
   38.7370    1.0264   14.1428 H   0  0  0  0  0  0  0  0  0  0  0  0
   37.0807   -0.6885   14.0564 H   0  0  0  0  0  0  0  0  0  0  0  0
   35.1488    0.1814   13.1212 H   0  0  0  0  0  0  0  0  0  0  0  0
   36.8794   -0.3112   11.0310 H   0  0  0  0  0  0  0  0  0  0  0  0
  1  2  1  0  0  0  0
  1  6  1  0  0  0  0
  1 21  1  0  0  0  0
  2  3  1  0  0  0  0
  2  7  2  0  0  0  0
  3  4  1  0  0  0  0
  3 22  1  0  0  0  0
  4  5  1  0  0  0  0
  4  8  2  0  0  0  0
  5  6  2  0  0  0  0
  5 23  1  0  0  0  0
  6 24  1  0  0  0  0
  9 10  2  0  0  0  0
  9 11  1  0  0  0  0
  9 12  1  0  0  0  0
  9 18  1  0  0  0  0
 13 14  1  0  0  0  0
 13 25  1  0  0  0  0
 14 15  1  0  0  0  0
 14 26  1  0  0  0  0
 14 27  1  0  0  0  0
 15 16  1  0  0  0  0
 15 17  1  0  0  0  0
 15 28  1  6  0  0  0
 16 21  1  0  0  0  0
 17 18  1  0  0  0  0
 17 19  1  0  0  0  0
 17 29  1  1  0  0  0
 19 20  1  0  0  0  0
 19 21  1  0  0  0  0
 19 30  1  1  0  0  0
 20 31  1  0  0  0  0
 21 32  1  6  0  0  0
M  CHG  2   1   1   3   1
M  END
$$$$
