U89
 OpenBabel04041914483D

 82 83  0  0  1  0  0  0  0  0999 V2000
   50.8594    2.5131  -12.2886 N   0  0  0  0  0  0  0  0  0  0  0  0
   52.0140    1.8114  -12.8620 C   0  0  1  0  0  0  0  0  0  0  0  0
   51.7864    0.2987  -12.7552 C   0  0  0  0  0  0  0  0  0  0  0  0
   51.8961   -0.0870  -11.2827 C   0  0  0  0  0  0  0  0  0  0  0  0
   51.6139   -1.5531  -11.0119 C   0  0  0  0  0  0  0  0  0  0  0  0
   50.3923   -1.8791  -10.9814 O   0  0  0  0  0  0  0  0  0  0  0  0
   52.6314   -2.2605  -10.7561 O   0  0  0  0  0  0  0  0  0  0  0  0
   52.5020    2.3576  -14.2446 C   0  0  0  0  0  0  0  0  0  0  0  0
   52.6470    3.6109  -14.3098 O   0  0  0  0  0  0  0  0  0  0  0  0
   52.7948    1.4892  -15.1161 O   0  0  0  0  0  0  0  0  0  0  0  0
   49.6318   12.0561   -3.9595 C   0  0  0  0  0  0  0  0  0  0  0  0
   48.1033   12.0361   -3.9193 C   0  0  0  0  0  0  0  0  0  0  0  0
   47.4751   12.8221   -5.0749 C   0  0  0  0  0  0  0  0  0  0  0  0
   47.6090   12.0900   -6.4090 C   0  0  0  0  0  0  0  0  0  0  0  0
   46.8139   10.8668   -6.4434 N   0  0  0  0  0  0  0  0  0  0  0  0
   46.5494   10.2159   -7.6364 C   0  0  0  0  0  0  0  0  0  0  0  0
   46.8585   10.6772   -8.7222 O   0  0  0  0  0  0  0  0  0  0  0  0
   45.8184    8.8884   -7.5141 C   0  0  0  0  0  0  0  0  0  0  0  0
   46.9369    7.4602   -7.5851 S   0  0  0  0  0  0  0  0  0  0  0  0
   46.8624    7.0743   -9.3700 C   0  0  0  0  0  0  0  0  0  0  0  0
   45.5515    6.3776   -9.7940 C   0  0  0  0  0  0  0  0  0  0  0  0
   44.5121    7.0393   -9.9324 O   0  0  0  0  0  0  0  0  0  0  0  0
   45.5613    4.9852   -9.9954 N   0  0  0  0  0  0  0  0  0  0  0  0
   44.2825    4.2704  -10.2346 C   0  0  0  0  0  0  0  0  0  0  0  0
   43.3068    4.3409   -9.0655 C   0  0  0  0  0  0  0  0  0  0  0  0
   43.5164    3.3492   -7.9238 C   0  0  0  0  0  0  0  0  0  0  0  0
   43.2840    1.8891   -8.2137 C   0  0  0  0  0  0  0  0  0  0  0  0
   41.9445    1.4376   -8.6765 C   0  0  0  0  0  0  0  0  0  0  0  0
   40.9875    2.1904   -8.8059 O   0  0  0  0  0  0  0  0  0  0  0  0
   41.8254    0.1055   -8.9345 N   0  3  0  0  0  0  0  0  0  0  0  0
   42.8326   -0.7679   -8.6998 C   0  0  0  0  0  0  0  0  0  0  0  0
   42.5827   -2.0724   -8.9496 N   0  0  0  0  0  0  0  0  0  0  0  0
   43.9782   -0.3974   -8.2452 N   0  0  0  0  0  0  0  0  0  0  0  0
   44.2052    0.9263   -7.9814 C   0  0  0  0  0  0  0  0  0  0  0  0
   45.4188    1.2333   -7.4345 N   0  0  0  0  0  0  0  0  0  0  0  0
   46.6465    4.3744  -10.6697 C   0  0  0  0  0  0  0  0  0  0  0  0
   47.3571    5.0685  -11.6594 C   0  0  0  0  0  0  0  0  0  0  0  0
   48.3597    4.4241  -12.3534 C   0  0  0  0  0  0  0  0  0  0  0  0
   48.6079    3.0825  -12.0727 C   0  0  0  0  0  0  0  0  0  0  0  0
   47.9157    2.3700  -11.0974 C   0  0  0  0  0  0  0  0  0  0  0  0
   46.9205    3.0251  -10.4011 C   0  0  0  0  0  0  0  0  0  0  0  0
   49.6288    2.4322  -12.8600 C   0  0  0  0  0  0  0  0  0  0  0  0
   49.2937    1.9106  -13.9216 O   0  0  0  0  0  0  0  0  0  0  0  0
   50.1395   13.2212   -3.3417 O   0  0  0  0  0  0  0  0  0  0  0  0
   50.7190   13.0507   -1.8117 P   0  0  0  0  0  0  0  0  0  0  0  0
   51.7194   11.9078   -1.9107 O   0  0  0  0  0  0  0  0  0  0  0  0
   49.4763   12.7302   -0.9916 O   0  0  0  0  0  0  0  0  0  0  0  0
   51.3412   14.4065   -1.5112 O   0  0  0  0  0  0  0  0  0  0  0  0
   50.9607    2.9075  -11.3736 H   0  0  0  0  0  0  0  0  0  0  0  0
   52.8349    2.0745  -12.1834 H   0  0  0  0  0  0  0  0  0  0  0  0
   52.5233   -0.2583  -13.3465 H   0  0  0  0  0  0  0  0  0  0  0  0
   50.8038    0.0146  -13.1495 H   0  0  0  0  0  0  0  0  0  0  0  0
   51.1900    0.5059  -10.6888 H   0  0  0  0  0  0  0  0  0  0  0  0
   52.9016    0.1718  -10.9271 H   0  0  0  0  0  0  0  0  0  0  0  0
   49.9942   12.0594   -4.9920 H   0  0  0  0  0  0  0  0  0  0  0  0
   50.0225   11.1465   -3.4973 H   0  0  0  0  0  0  0  0  0  0  0  0
   47.7630   10.9966   -3.9620 H   0  0  0  0  0  0  0  0  0  0  0  0
   47.7395   12.4535   -2.9750 H   0  0  0  0  0  0  0  0  0  0  0  0
   46.4105   12.9877   -4.8660 H   0  0  0  0  0  0  0  0  0  0  0  0
   47.9476   13.8094   -5.1463 H   0  0  0  0  0  0  0  0  0  0  0  0
   47.2673   12.7401   -7.2217 H   0  0  0  0  0  0  0  0  0  0  0  0
   48.6505   11.8333   -6.6250 H   0  0  0  0  0  0  0  0  0  0  0  0
   46.6417   10.3892   -5.5692 H   0  0  0  0  0  0  0  0  0  0  0  0
   45.2669    8.8489   -6.5722 H   0  0  0  0  0  0  0  0  0  0  0  0
   45.0911    8.8454   -8.3262 H   0  0  0  0  0  0  0  0  0  0  0  0
   46.9639    7.9947   -9.9535 H   0  0  0  0  0  0  0  0  0  0  0  0
   47.7441    6.4616   -9.5704 H   0  0  0  0  0  0  0  0  0  0  0  0
   44.4492    3.2207  -10.5126 H   0  0  0  0  0  0  0  0  0  0  0  0
   43.8221    4.7354  -11.1167 H   0  0  0  0  0  0  0  0  0  0  0  0
   42.2992    4.2159   -9.4658 H   0  0  0  0  0  0  0  0  0  0  0  0
   43.3635    5.3364   -8.6182 H   0  0  0  0  0  0  0  0  0  0  0  0
   42.8619    3.6324   -7.0908 H   0  0  0  0  0  0  0  0  0  0  0  0
   44.5261    3.5287   -7.5501 H   0  0  0  0  0  0  0  0  0  0  0  0
   40.9276   -0.2209   -9.2434 H   0  0  0  0  0  0  0  0  0  0  0  0
   43.3975   -2.6786   -8.9431 H   0  0  0  0  0  0  0  0  0  0  0  0
   41.7467   -2.4040   -9.3943 H   0  0  0  0  0  0  0  0  0  0  0  0
   46.1044    0.4906   -7.4150 H   0  0  0  0  0  0  0  0  0  0  0  0
   45.7279    2.1782   -7.2741 H   0  0  0  0  0  0  0  0  0  0  0  0
   47.1238    6.0928  -11.9321 H   0  0  0  0  0  0  0  0  0  0  0  0
   48.9433    4.9310  -13.1178 H   0  0  0  0  0  0  0  0  0  0  0  0
   48.1449    1.3246  -10.8968 H   0  0  0  0  0  0  0  0  0  0  0  0
   46.3522    2.4775   -9.6587 H   0  0  0  0  0  0  0  0  0  0  0  0
  1 42  1  0  0  0  0
  1  2  1  0  0  0  0
  1 49  1  0  0  0  0
  2  8  1  0  0  0  0
  2  3  1  0  0  0  0
  2 50  1  1  0  0  0
  3  4  1  0  0  0  0
  3 51  1  0  0  0  0
  3 52  1  0  0  0  0
  4  5  1  0  0  0  0
  4 53  1  0  0  0  0
  4 54  1  0  0  0  0
  5  7  2  0  0  0  0
  5  6  1  0  0  0  0
  8 10  2  0  0  0  0
  8  9  1  0  0  0  0
 11 12  1  0  0  0  0
 11 44  1  0  0  0  0
 11 55  1  0  0  0  0
 11 56  1  0  0  0  0
 12 13  1  0  0  0  0
 12 57  1  0  0  0  0
 12 58  1  0  0  0  0
 13 14  1  0  0  0  0
 13 59  1  0  0  0  0
 13 60  1  0  0  0  0
 14 15  1  0  0  0  0
 14 61  1  0  0  0  0
 14 62  1  0  0  0  0
 15 16  1  0  0  0  0
 15 63  1  0  0  0  0
 16 18  1  0  0  0  0
 16 17  2  0  0  0  0
 18 19  1  0  0  0  0
 18 64  1  0  0  0  0
 18 65  1  0  0  0  0
 19 20  1  0  0  0  0
 20 21  1  0  0  0  0
 20 66  1  0  0  0  0
 20 67  1  0  0  0  0
 21 23  1  0  0  0  0
 21 22  2  0  0  0  0
 23 36  1  0  0  0  0
 23 24  1  0  0  0  0
 24 25  1  0  0  0  0
 24 68  1  0  0  0  0
 24 69  1  0  0  0  0
 25 26  1  0  0  0  0
 25 70  1  0  0  0  0
 25 71  1  0  0  0  0
 26 27  1  0  0  0  0
 26 72  1  0  0  0  0
 26 73  1  0  0  0  0
 27 34  2  0  0  0  0
 27 28  1  0  0  0  0
 28 30  1  0  0  0  0
 28 29  2  0  0  0  0
 30 31  1  0  0  0  0
 30 74  1  0  0  0  0
 31 33  2  0  0  0  0
 31 32  1  0  0  0  0
 32 75  1  0  0  0  0
 32 76  1  0  0  0  0
 33 34  1  0  0  0  0
 34 35  1  0  0  0  0
 35 77  1  0  0  0  0
 35 78  1  0  0  0  0
 36 37  1  0  0  0  0
 36 41  2  0  0  0  0
 37 38  2  0  0  0  0
 37 79  1  0  0  0  0
 38 39  1  0  0  0  0
 38 80  1  0  0  0  0
 39 42  1  0  0  0  0
 39 40  2  0  0  0  0
 40 41  1  0  0  0  0
 40 81  1  0  0  0  0
 41 82  1  0  0  0  0
 42 43  2  0  0  0  0
 44 45  1  0  0  0  0
 45 48  2  0  0  0  0
 45 47  1  0  0  0  0
 45 46  1  0  0  0  0
M  CHG  1  30   1
M  END
$$$$
