UA3
 OpenBabel04041917253D

 32 33  0  0  1  0  0  0  0  0999 V2000
   36.4933   -2.1411   11.7630 N   0  3  0  0  0  0  0  0  0  0  0  0
   35.2540   -2.2172   11.1473 C   0  0  0  0  0  0  0  0  0  0  0  0
   34.7143   -1.3123   10.5086 O   0  0  0  0  0  0  0  0  0  0  0  0
   34.5901   -3.4186   11.2823 N   0  3  0  0  0  0  0  0  0  0  0  0
   35.0546   -4.5206   11.9583 C   0  0  0  0  0  0  0  0  0  0  0  0
   34.3996   -5.5654   12.0560 O   0  0  0  0  0  0  0  0  0  0  0  0
   36.3767   -4.3716   12.5459 C   0  0  0  0  0  0  0  0  0  0  0  0
   37.0447   -3.2163   12.4216 C   0  0  0  0  0  0  0  0  0  0  0  0
   40.7200    0.2382   13.8347 O   0  0  0  0  0  0  0  0  0  0  0  0
   40.3798    0.6386   12.5129 C   0  0  0  0  0  0  0  0  0  0  0  0
   38.9270    0.4825   12.0921 C   0  0  1  0  0  0  0  0  0  0  0  0
   38.5682   -0.9015   11.8168 O   0  0  0  0  0  0  0  0  0  0  0  0
   37.8651    1.1236   13.0140 C   0  0  1  0  0  0  0  0  0  0  0  0
   37.3773    2.2918   12.3532 O   0  0  0  0  0  0  0  0  0  0  0  0
   36.8287    0.0019   13.1020 C   0  0  2  0  0  0  0  0  0  0  0  0
   37.1389   -0.8025   14.2778 O   0  0  0  0  0  0  0  0  0  0  0  0
   37.1280   -0.8130   11.8179 C   0  0  2  0  0  0  0  0  0  0  0  0
   35.2007    3.0546   13.2620 O   0  0  0  0  0  0  0  0  0  0  0  0
   36.6571    3.4869   13.2166 P   0  0  0  0  0  0  0  0  0  0  0  0
   36.9217    4.7323   12.3774 O   0  0  0  0  0  0  0  0  0  0  0  0
   37.3577    3.4961   14.5648 O   0  0  0  0  0  0  0  0  0  0  0  0
   33.6780   -3.4553   10.8633 H   0  0  0  0  0  0  0  0  0  0  0  0
   36.7884   -5.2128   13.1027 H   0  0  0  0  0  0  0  0  0  0  0  0
   38.0204   -3.0600   12.8710 H   0  0  0  0  0  0  0  0  0  0  0  0
   41.6085    0.6004   13.9938 H   0  0  0  0  0  0  0  0  0  0  0  0
   41.0012    0.0308   11.8498 H   0  0  0  0  0  0  0  0  0  0  0  0
   40.6333    1.6952   12.3965 H   0  0  0  0  0  0  0  0  0  0  0  0
   38.8724    0.9644   11.1077 H   0  0  0  0  0  0  0  0  0  0  0  0
   38.3114    1.3949   13.9743 H   0  0  0  0  0  0  0  0  0  0  0  0
   35.7841    0.3192   13.1421 H   0  0  0  0  0  0  0  0  0  0  0  0
   36.3667   -1.3564   14.4588 H   0  0  0  0  0  0  0  0  0  0  0  0
   36.8527   -0.2655   10.9047 H   0  0  0  0  0  0  0  0  0  0  0  0
  1  2  1  0  0  0  0
  1  8  1  0  0  0  0
  1 17  1  0  0  0  0
  2  3  2  0  0  0  0
  2  4  1  0  0  0  0
  4  5  1  0  0  0  0
  4 22  1  0  0  0  0
  5  6  2  0  0  0  0
  5  7  1  0  0  0  0
  7  8  2  0  0  0  0
  7 23  1  0  0  0  0
  8 24  1  0  0  0  0
  9 10  1  0  0  0  0
  9 25  1  0  0  0  0
 10 11  1  0  0  0  0
 10 26  1  0  0  0  0
 10 27  1  0  0  0  0
 11 12  1  0  0  0  0
 11 13  1  0  0  0  0
 11 28  1  6  0  0  0
 12 17  1  0  0  0  0
 13 14  1  0  0  0  0
 13 15  1  0  0  0  0
 13 29  1  1  0  0  0
 14 19  1  0  0  0  0
 15 16  1  0  0  0  0
 15 17  1  0  0  0  0
 15 30  1  1  0  0  0
 16 31  1  0  0  0  0
 17 32  1  6  0  0  0
 18 19  2  0  0  0  0
 19 20  1  0  0  0  0
 19 21  1  0  0  0  0
M  CHG  2   1   1   4   1
M  END
$$$$
