UCM
 OpenBabel04041915593D

 45 52  0  0  1  0  0  0  0  0999 V2000
    6.2740   10.0927   19.3526 N   0  3  0  0  0  0  0  0  0  0  0  0
    4.9557    9.7069   19.4774 C   0  0  0  0  0  0  0  0  0  0  0  0
    4.1263   10.3413   20.1005 O   0  0  0  0  0  0  0  0  0  0  0  0
    4.9195    8.4927   18.7359 C   0  0  0  0  0  0  0  0  0  0  0  0
    3.9415    7.5186   18.4144 C   0  0  0  0  0  0  0  0  0  0  0  0
    2.5414    7.4706   18.7669 C   0  0  0  0  0  0  0  0  0  0  0  0
    1.9867    6.2687   18.1752 C   0  0  0  0  0  0  0  0  0  0  0  0
    0.6146    5.9384   18.3160 C   0  0  0  0  0  0  0  0  0  0  0  0
   -0.2332    6.7628   19.0545 C   0  0  0  0  0  0  0  0  0  0  0  0
    0.2630    7.9115   19.6462 C   0  0  0  0  0  0  0  0  0  0  0  0
    1.6222    8.2705   19.5076 C   0  0  0  0  0  0  0  0  0  0  0  0
    2.9833    5.5517   17.4900 N   0  3  0  0  0  0  0  0  0  0  0  0
    4.0738    6.3425   17.6646 C   0  0  0  0  0  0  0  0  0  0  0  0
    5.3501    6.0863   17.1565 C   0  0  0  0  0  0  0  0  0  0  0  0
    5.7029    5.0062   16.4115 N   0  3  0  0  0  0  0  0  0  0  0  0
    7.0655    5.2546   16.1523 C   0  0  0  0  0  0  0  0  0  0  0  0
    7.4826    6.4883   16.7915 C   0  0  0  0  0  0  0  0  0  0  0  0
    8.8541    6.8406   16.6098 C   0  0  0  0  0  0  0  0  0  0  0  0
    9.7358    6.0366   15.8541 C   0  0  0  0  0  0  0  0  0  0  0  0
    9.2906    4.8673   15.2470 C   0  0  0  0  0  0  0  0  0  0  0  0
    7.9635    4.4773   15.3872 C   0  0  0  0  0  0  0  0  0  0  0  0
    6.3331    7.0411   17.4589 C   0  0  0  0  0  0  0  0  0  0  0  0
    6.2239    8.2317   18.2126 C   0  0  0  0  0  0  0  0  0  0  0  0
    7.1018    9.2755   18.6138 C   0  0  0  0  0  0  0  0  0  0  0  0
    8.2893    9.5119   18.4307 O   0  0  0  0  0  0  0  0  0  0  0  0
    4.8958    3.9368   15.8829 C   0  0  1  0  0  0  0  0  0  0  0  0
    3.9656    3.5305   16.8838 O   0  0  0  0  0  0  0  0  0  0  0  0
    2.8178    4.3557   16.7019 C   0  0  2  0  0  0  0  0  0  0  0  0
    2.7117    4.6654   15.2182 C   0  0  0  0  0  0  0  0  0  0  0  0
    4.0946    4.3831   14.6721 C   0  0  0  0  0  0  0  0  0  0  0  0
    6.6169   10.9322   19.7877 H   0  0  0  0  0  0  0  0  0  0  0  0
    0.2013    5.0384   17.8671 H   0  0  0  0  0  0  0  0  0  0  0  0
   -1.2848    6.4987   19.1686 H   0  0  0  0  0  0  0  0  0  0  0  0
   -0.4147    8.5399   20.2246 H   0  0  0  0  0  0  0  0  0  0  0  0
    1.9429    9.1882   19.9947 H   0  0  0  0  0  0  0  0  0  0  0  0
    9.2669    7.7419   17.0515 H   0  0  0  0  0  0  0  0  0  0  0  0
   10.7791    6.3253   15.7382 H   0  0  0  0  0  0  0  0  0  0  0  0
    9.9814    4.2583   14.6678 H   0  0  0  0  0  0  0  0  0  0  0  0
    7.6437    3.5578   14.9035 H   0  0  0  0  0  0  0  0  0  0  0  0
    5.5494    3.0909   15.6609 H   0  0  0  0  0  0  0  0  0  0  0  0
    1.9464    3.8153   17.0769 H   0  0  0  0  0  0  0  0  0  0  0  0
    2.3865    5.6913   15.0121 H   0  0  0  0  0  0  0  0  0  0  0  0
    1.9872    3.9935   14.7465 H   0  0  0  0  0  0  0  0  0  0  0  0
    4.0428    3.5723   13.9380 H   0  0  0  0  0  0  0  0  0  0  0  0
    4.5257    5.2535   14.1647 H   0  0  0  0  0  0  0  0  0  0  0  0
  1  2  1  0  0  0  0
  1 24  1  0  0  0  0
  1 31  1  0  0  0  0
  2  3  2  0  0  0  0
  2  4  1  0  0  0  0
  4  5  2  0  0  0  0
  4 23  1  0  0  0  0
  5  6  1  0  0  0  0
  5 13  1  0  0  0  0
  6  7  2  0  0  0  0
  6 11  1  0  0  0  0
  7  8  1  0  0  0  0
  7 12  1  0  0  0  0
  8  9  2  0  0  0  0
  8 32  1  0  0  0  0
  9 10  1  0  0  0  0
  9 33  1  0  0  0  0
 10 11  2  0  0  0  0
 10 34  1  0  0  0  0
 11 35  1  0  0  0  0
 12 13  2  0  0  0  0
 12 28  1  0  0  0  0
 13 14  1  0  0  0  0
 14 15  2  0  0  0  0
 14 22  1  0  0  0  0
 15 16  1  0  0  0  0
 15 26  1  0  0  0  0
 16 17  2  0  0  0  0
 16 21  1  0  0  0  0
 17 18  1  0  0  0  0
 17 22  1  0  0  0  0
 18 19  2  0  0  0  0
 18 36  1  0  0  0  0
 19 20  1  0  0  0  0
 19 37  1  0  0  0  0
 20 21  2  0  0  0  0
 20 38  1  0  0  0  0
 21 39  1  0  0  0  0
 22 23  2  0  0  0  0
 23 24  1  0  0  0  0
 24 25  2  0  0  0  0
 26 27  1  0  0  0  0
 26 30  1  0  0  0  0
 26 40  1  6  0  0  0
 27 28  1  0  0  0  0
 28 29  1  0  0  0  0
 28 41  1  1  0  0  0
 29 30  1  0  0  0  0
 29 42  1  0  0  0  0
 29 43  1  0  0  0  0
 30 44  1  0  0  0  0
 30 45  1  0  0  0  0
M  CHG  3   1   1  12   1  15   1
M  END
$$$$
