UCN
 OpenBabel04041915583D

 63 70  0  0  1  0  0  0  0  0999 V2000
    8.2521    9.9745   17.3265 O   0  0  0  0  0  0  0  0  0  0  0  0
    7.7491    9.2965   18.4459 C   0  0  1  0  0  0  0  0  0  0  0  0
    6.9263   10.2300   19.1626 N   0  0  0  0  0  0  0  0  0  0  0  0
    5.5958    9.8658   19.3494 C   0  0  0  0  0  0  0  0  0  0  0  0
    4.8168   10.5535   19.9930 O   0  0  0  0  0  0  0  0  0  0  0  0
    5.4796    8.6306   18.6378 C   0  0  0  0  0  0  0  0  0  0  0  0
    4.4723    7.6912   18.3359 C   0  0  0  0  0  0  0  0  0  0  0  0
    3.1056    7.7446   18.7257 C   0  0  0  0  0  0  0  0  0  0  0  0
    2.4548    6.5728   18.1898 C   0  0  0  0  0  0  0  0  0  0  0  0
    1.0790    6.3395   18.4083 C   0  0  0  0  0  0  0  0  0  0  0  0
    0.3348    7.2526   19.1523 C   0  0  0  0  0  0  0  0  0  0  0  0
    0.9383    8.3830   19.6860 C   0  0  0  0  0  0  0  0  0  0  0  0
    2.2993    8.6312   19.4822 C   0  0  0  0  0  0  0  0  0  0  0  0
    3.3750    5.7664   17.4890 N   0  3  0  0  0  0  0  0  0  0  0  0
    4.5181    6.4888   17.6062 C   0  0  0  0  0  0  0  0  0  0  0  0
    5.7679    6.1648   17.0751 C   0  0  0  0  0  0  0  0  0  0  0  0
    6.0788    5.0858   16.2965 N   0  3  0  0  0  0  0  0  0  0  0  0
    7.4530    5.3354   16.0341 C   0  0  0  0  0  0  0  0  0  0  0  0
    7.8903    6.5504   16.6994 C   0  0  0  0  0  0  0  0  0  0  0  0
    9.2446    6.9450   16.5472 C   0  0  0  0  0  0  0  0  0  0  0  0
   10.1413    6.1970   15.7823 C   0  0  0  0  0  0  0  0  0  0  0  0
    9.7145    5.0515   15.1413 C   0  0  0  0  0  0  0  0  0  0  0  0
    8.3903    4.6190   15.2527 C   0  0  0  0  0  0  0  0  0  0  0  0
    6.7719    7.0934   17.3734 C   0  0  0  0  0  0  0  0  0  0  0  0
    6.7427    8.2936   18.1044 C   0  0  0  0  0  0  0  0  0  0  0  0
    5.1863    4.0698   15.7762 C   0  0  1  0  0  0  0  0  0  0  0  0
    4.2715    3.7027   16.8223 O   0  0  0  0  0  0  0  0  0  0  0  0
    3.0945    4.4688   16.9397 C   0  0  2  0  0  0  0  0  0  0  0  0
    2.2699    4.4973   15.6523 C   0  0  0  0  0  0  0  0  0  0  0  0
    3.0518    3.8732   14.4998 C   0  0  1  0  0  0  0  0  0  0  0  0
    2.2818    4.1652   13.2246 N   0  3  0  0  0  0  0  0  0  0  0  0
    2.8108    3.5323   11.9872 C   0  0  0  0  0  0  0  0  0  0  0  0
    4.4640    4.4868   14.4452 C   0  0  1  0  0  0  0  0  0  0  0  0
    4.2337    5.8996   14.2678 O   0  0  0  0  0  0  0  0  0  0  0  0
    5.1723    6.5392   13.4045 C   0  0  0  0  0  0  0  0  0  0  0  0
    5.8558    2.6962   15.5452 C   0  0  0  0  0  0  0  0  0  0  0  0
    7.4754   10.2934   16.8394 H   0  0  0  0  0  0  0  0  0  0  0  0
    8.5443    8.9170   19.0918 H   0  0  0  0  0  0  0  0  0  0  0  0
    7.2961   11.0511   19.6174 H   0  0  0  0  0  0  0  0  0  0  0  0
    0.5826    5.4572   18.0164 H   0  0  0  0  0  0  0  0  0  0  0  0
   -0.7239    7.0744   19.3263 H   0  0  0  0  0  0  0  0  0  0  0  0
    0.3453    9.0777   20.2786 H   0  0  0  0  0  0  0  0  0  0  0  0
    2.7227    9.5251   19.9317 H   0  0  0  0  0  0  0  0  0  0  0  0
    9.6206    7.8470   17.0221 H   0  0  0  0  0  0  0  0  0  0  0  0
   11.1761    6.5200   15.6891 H   0  0  0  0  0  0  0  0  0  0  0  0
   10.4243    4.4738   14.5497 H   0  0  0  0  0  0  0  0  0  0  0  0
    8.1412    3.7122   14.7214 H   0  0  0  0  0  0  0  0  0  0  0  0
    2.4995    3.9561   17.7054 H   0  0  0  0  0  0  0  0  0  0  0  0
    1.9548    5.5234   15.4153 H   0  0  0  0  0  0  0  0  0  0  0  0
    1.3364    3.9405   15.8029 H   0  0  0  0  0  0  0  0  0  0  0  0
    3.0778    2.7827   14.5975 H   0  0  0  0  0  0  0  0  0  0  0  0
    1.3010    3.8747   13.3441 H   0  0  0  0  0  0  0  0  0  0  0  0
    2.1066    3.7473   11.1816 H   0  0  0  0  0  0  0  0  0  0  0  0
    2.8891    2.4561   12.1576 H   0  0  0  0  0  0  0  0  0  0  0  0
    3.7842    3.9701   11.7593 H   0  0  0  0  0  0  0  0  0  0  0  0
    5.0280    4.1126   13.5833 H   0  0  0  0  0  0  0  0  0  0  0  0
    5.0066    7.6189   13.4555 H   0  0  0  0  0  0  0  0  0  0  0  0
    4.9956    6.2132   12.3750 H   0  0  0  0  0  0  0  0  0  0  0  0
    6.2033    6.3235   13.6882 H   0  0  0  0  0  0  0  0  0  0  0  0
    5.0993    1.9188   15.3777 H   0  0  0  0  0  0  0  0  0  0  0  0
    6.4248    2.3789   16.4271 H   0  0  0  0  0  0  0  0  0  0  0  0
    6.5015    2.6717   14.6682 H   0  0  0  0  0  0  0  0  0  0  0  0
    2.2601    5.1920   13.1007 H   0  0  0  0  0  0  0  0  0  0  0  0
  1  2  1  0  0  0  0
  1 37  1  0  0  0  0
  2  3  1  0  0  0  0
  2 25  1  0  0  0  0
  2 38  1  1  0  0  0
  3  4  1  0  0  0  0
  3 39  1  0  0  0  0
  4  5  2  0  0  0  0
  4  6  1  0  0  0  0
  6  7  2  0  0  0  0
  6 25  1  0  0  0  0
  7  8  1  0  0  0  0
  7 15  1  0  0  0  0
  8  9  2  0  0  0  0
  8 13  1  0  0  0  0
  9 10  1  0  0  0  0
  9 14  1  0  0  0  0
 10 11  2  0  0  0  0
 10 40  1  0  0  0  0
 11 12  1  0  0  0  0
 11 41  1  0  0  0  0
 12 13  2  0  0  0  0
 12 42  1  0  0  0  0
 13 43  1  0  0  0  0
 14 15  2  0  0  0  0
 14 28  1  0  0  0  0
 15 16  1  0  0  0  0
 16 17  2  0  0  0  0
 16 24  1  0  0  0  0
 17 18  1  0  0  0  0
 17 26  1  0  0  0  0
 18 19  2  0  0  0  0
 18 23  1  0  0  0  0
 19 20  1  0  0  0  0
 19 24  1  0  0  0  0
 20 21  2  0  0  0  0
 20 44  1  0  0  0  0
 21 22  1  0  0  0  0
 21 45  1  0  0  0  0
 22 23  2  0  0  0  0
 22 46  1  0  0  0  0
 23 47  1  0  0  0  0
 24 25  2  0  0  0  0
 26 27  1  0  0  0  0
 26 33  1  0  0  0  0
 26 36  1  6  0  0  0
 27 28  1  0  0  0  0
 28 29  1  0  0  0  0
 28 48  1  1  0  0  0
 29 30  1  0  0  0  0
 29 49  1  0  0  0  0
 29 50  1  0  0  0  0
 30 31  1  0  0  0  0
 30 33  1  0  0  0  0
 30 51  1  1  0  0  0
 31 32  1  0  0  0  0
 31 52  1  0  0  0  0
 31 63  1  0  0  0  0
 32 53  1  0  0  0  0
 32 54  1  0  0  0  0
 32 55  1  0  0  0  0
 33 34  1  0  0  0  0
 33 56  1  6  0  0  0
 34 35  1  0  0  0  0
 35 57  1  0  0  0  0
 35 58  1  0  0  0  0
 35 59  1  0  0  0  0
 36 60  1  0  0  0  0
 36 61  1  0  0  0  0
 36 62  1  0  0  0  0
M  CHG  3  14   1  17   1  31   1
M  END
$$$$
