UI1
 OpenBabel04041916513D

 54 57  0  0  0  0  0  0  0  0999 V2000
   29.5397   11.8423   28.7181 N   0  3  0  0  0  0  0  0  0  0  0  0
   28.2909   11.0688   28.8771 C   0  0  0  0  0  0  0  0  0  0  0  0
   27.2592   11.8337   29.6554 C   0  0  0  0  0  0  0  0  0  0  0  0
   26.5805   12.9016   29.0491 C   0  0  0  0  0  0  0  0  0  0  0  0
   25.5959   13.5964   29.7548 C   0  0  0  0  0  0  0  0  0  0  0  0
   25.2749   13.2669   31.0761 C   0  0  0  0  0  0  0  0  0  0  0  0
   24.2477   14.0030   31.7035 N   0  0  0  0  0  0  0  0  0  0  0  0
   24.5456   14.9866   32.6031 C   0  0  0  0  0  0  0  0  0  0  0  0
   25.6513   15.1691   33.0377 O   0  0  0  0  0  0  0  0  0  0  0  0
   23.4120   15.9074   33.0242 C   0  0  0  0  0  0  0  0  0  0  0  0
   23.7577   16.9600   33.8944 C   0  0  0  0  0  0  0  0  0  0  0  0
   22.8114   17.9135   34.2731 C   0  0  0  0  0  0  0  0  0  0  0  0
   23.2074   18.9717   35.1337 N   0  0  0  0  0  0  0  0  0  0  0  0
   23.7331   18.8425   36.4343 C   0  0  0  0  0  0  0  0  0  0  0  0
   24.1443   19.9626   37.0726 N   0  0  0  0  0  0  0  0  0  0  0  0
   24.6157   19.8160   38.3427 C   0  0  0  0  0  0  0  0  0  0  0  0
   24.6577   18.6050   38.9948 C   0  0  0  0  0  0  0  0  0  0  0  0
   24.2106   17.5219   38.2814 C   0  0  0  0  0  0  0  0  0  0  0  0
   23.7419   17.6204   37.0178 N   0  0  0  0  0  0  0  0  0  0  0  0
   21.4870   17.8019   33.7876 C   0  0  0  0  0  0  0  0  0  0  0  0
   20.5120   18.7410   34.1472 C   0  0  0  0  0  0  0  0  0  0  0  0
   19.1822   18.6677   33.6975 C   0  0  0  0  0  0  0  0  0  0  0  0
   18.8159   17.5963   32.8572 C   0  0  0  0  0  0  0  0  0  0  0  0
   19.7671   16.6330   32.4776 C   0  0  0  0  0  0  0  0  0  0  0  0
   21.1017   16.7174   32.9265 C   0  0  0  0  0  0  0  0  0  0  0  0
   22.0860   15.7827   32.5525 C   0  0  0  0  0  0  0  0  0  0  0  0
   18.2257   19.7072   34.1195 C   0  0  0  0  0  0  0  0  0  0  0  0
   18.6367   20.6981   34.8750 N   0  0  0  0  0  0  0  0  0  0  0  0
   16.9673   19.6787   33.7563 N   0  0  0  0  0  0  0  0  0  0  0  0
   25.9617   12.2131   31.7094 C   0  0  0  0  0  0  0  0  0  0  0  0
   26.9578   11.5042   30.9875 C   0  0  0  0  0  0  0  0  0  0  0  0
   30.2459   11.3180   28.1876 H   0  0  0  0  0  0  0  0  0  0  0  0
   29.3540   12.7259   28.2256 H   0  0  0  0  0  0  0  0  0  0  0  0
   28.5660   10.1383   29.3805 H   0  0  0  0  0  0  0  0  0  0  0  0
   27.9399   10.8379   27.8657 H   0  0  0  0  0  0  0  0  0  0  0  0
   26.7930   13.1883   28.0188 H   0  0  0  0  0  0  0  0  0  0  0  0
   25.0779   14.4268   29.2833 H   0  0  0  0  0  0  0  0  0  0  0  0
   23.3094   13.9202   31.3482 H   0  0  0  0  0  0  0  0  0  0  0  0
   24.7798   17.0460   34.2657 H   0  0  0  0  0  0  0  0  0  0  0  0
   23.1572   19.9135   34.7682 H   0  0  0  0  0  0  0  0  0  0  0  0
   24.9634   20.7251   38.8388 H   0  0  0  0  0  0  0  0  0  0  0  0
   25.0231   18.5105   40.0123 H   0  0  0  0  0  0  0  0  0  0  0  0
   24.2184   16.5207   38.7279 H   0  0  0  0  0  0  0  0  0  0  0  0
   20.8264   19.5409   34.8005 H   0  0  0  0  0  0  0  0  0  0  0  0
   17.7981   17.5026   32.4945 H   0  0  0  0  0  0  0  0  0  0  0  0
   19.4606   15.8104   31.8243 H   0  0  0  0  0  0  0  0  0  0  0  0
   21.8031   14.9732   31.8897 H   0  0  0  0  0  0  0  0  0  0  0  0
   18.0174   21.4243   35.1850 H   0  0  0  0  0  0  0  0  0  0  0  0
   16.6117   18.9336   33.1754 H   0  0  0  0  0  0  0  0  0  0  0  0
   16.3181   20.3930   34.0495 H   0  0  0  0  0  0  0  0  0  0  0  0
   25.7284   11.9280   32.7353 H   0  0  0  0  0  0  0  0  0  0  0  0
   27.4782   10.6752   31.4718 H   0  0  0  0  0  0  0  0  0  0  0  0
   29.9312   12.0750   29.6417 H   0  0  0  0  0  0  0  0  0  0  0  0
   19.5958   20.7675   35.1832 H   0  0  0  0  0  0  0  0  0  0  0  0
  1  2  1  0  0  0  0
  1 32  1  0  0  0  0
  1 33  1  0  0  0  0
  1 53  1  0  0  0  0
  2  3  1  0  0  0  0
  2 34  1  0  0  0  0
  2 35  1  0  0  0  0
  3  4  2  0  0  0  0
  3 31  1  0  0  0  0
  4  5  1  0  0  0  0
  4 36  1  0  0  0  0
  5  6  2  0  0  0  0
  5 37  1  0  0  0  0
  6  7  1  0  0  0  0
  6 30  1  0  0  0  0
  7  8  1  0  0  0  0
  7 38  1  0  0  0  0
  8  9  2  0  0  0  0
  8 10  1  0  0  0  0
 10 11  2  0  0  0  0
 10 26  1  0  0  0  0
 11 12  1  0  0  0  0
 11 39  1  0  0  0  0
 12 13  1  0  0  0  0
 12 20  2  0  0  0  0
 13 14  1  0  0  0  0
 13 40  1  0  0  0  0
 14 15  2  0  0  0  0
 14 19  1  0  0  0  0
 15 16  1  0  0  0  0
 16 17  2  0  0  0  0
 16 41  1  0  0  0  0
 17 18  1  0  0  0  0
 17 42  1  0  0  0  0
 18 19  2  0  0  0  0
 18 43  1  0  0  0  0
 20 21  1  0  0  0  0
 20 25  1  0  0  0  0
 21 22  2  0  0  0  0
 21 44  1  0  0  0  0
 22 23  1  0  0  0  0
 22 27  1  0  0  0  0
 23 24  2  0  0  0  0
 23 45  1  0  0  0  0
 24 25  1  0  0  0  0
 24 46  1  0  0  0  0
 25 26  2  0  0  0  0
 26 47  1  0  0  0  0
 27 28  2  0  0  0  0
 27 29  1  0  0  0  0
 28 48  1  0  0  0  0
 28 54  1  0  0  0  0
 29 49  1  0  0  0  0
 29 50  1  0  0  0  0
 30 31  2  0  0  0  0
 30 51  1  0  0  0  0
 31 52  1  0  0  0  0
M  CHG  1   1   1
M  END
$$$$
