UI2
 OpenBabel04041916513D

 34 36  0  0  0  0  0  0  0  0999 V2000
   22.8783   15.6423   33.4877 C   0  0  0  0  0  0  0  0  0  0  0  0
   21.6001   15.6698   32.9321 C   0  0  0  0  0  0  0  0  0  0  0  0
   20.7481   16.7584   33.1611 C   0  0  0  0  0  0  0  0  0  0  0  0
   21.1980   17.8386   33.9526 C   0  0  0  0  0  0  0  0  0  0  0  0
   22.5013   17.8135   34.5123 C   0  0  0  0  0  0  0  0  0  0  0  0
   23.3265   16.7090   34.2657 C   0  0  0  0  0  0  0  0  0  0  0  0
   19.4434   16.7755   32.6477 C   0  0  0  0  0  0  0  0  0  0  0  0
   18.5661   17.8261   32.9433 C   0  0  0  0  0  0  0  0  0  0  0  0
   18.9667   18.8931   33.7600 C   0  0  0  0  0  0  0  0  0  0  0  0
   20.2927   18.8842   34.2283 C   0  0  0  0  0  0  0  0  0  0  0  0
   22.9520   18.8938   35.2924 N   0  0  0  0  0  0  0  0  0  0  0  0
   23.5550   18.8694   36.5484 C   0  0  0  0  0  0  0  0  0  0  0  0
   23.5309   17.7458   37.2792 N   0  0  0  0  0  0  0  0  0  0  0  0
   24.0487   17.8032   38.5168 C   0  0  0  0  0  0  0  0  0  0  0  0
   24.5874   18.9389   39.0615 C   0  0  0  0  0  0  0  0  0  0  0  0
   24.5628   20.0440   38.2457 C   0  0  0  0  0  0  0  0  0  0  0  0
   24.0442   20.0372   36.9941 N   0  0  0  0  0  0  0  0  0  0  0  0
   18.0391   19.9738   34.1699 C   0  0  0  0  0  0  0  0  0  0  0  0
   16.7371   19.7815   34.1441 N   0  0  0  0  0  0  0  0  0  0  0  0
   18.5028   21.1328   34.5940 N   0  0  0  0  0  0  0  0  0  0  0  0
   23.5229   14.7812   33.3260 H   0  0  0  0  0  0  0  0  0  0  0  0
   21.2686   14.8174   32.3417 H   0  0  0  0  0  0  0  0  0  0  0  0
   24.3258   16.6664   34.6942 H   0  0  0  0  0  0  0  0  0  0  0  0
   19.0917   15.9494   32.0303 H   0  0  0  0  0  0  0  0  0  0  0  0
   17.5651   17.7688   32.5224 H   0  0  0  0  0  0  0  0  0  0  0  0
   20.6369   19.6729   34.8910 H   0  0  0  0  0  0  0  0  0  0  0  0
   23.1209   19.7697   34.8239 H   0  0  0  0  0  0  0  0  0  0  0  0
   24.0083   16.8717   39.0775 H   0  0  0  0  0  0  0  0  0  0  0  0
   24.9977   18.9645   40.0616 H   0  0  0  0  0  0  0  0  0  0  0  0
   24.9598   20.9958   38.5824 H   0  0  0  0  0  0  0  0  0  0  0  0
   16.0821   20.4978   34.4275 H   0  0  0  0  0  0  0  0  0  0  0  0
   19.4969   21.3266   34.6181 H   0  0  0  0  0  0  0  0  0  0  0  0
   17.8981   21.8733   34.9208 H   0  0  0  0  0  0  0  0  0  0  0  0
   16.3451   18.8921   33.8644 H   0  0  0  0  0  0  0  0  0  0  0  0
  1  2  2  0  0  0  0
  1  6  1  0  0  0  0
  1 21  1  0  0  0  0
  2  3  1  0  0  0  0
  2 22  1  0  0  0  0
  3  4  2  0  0  0  0
  3  7  1  0  0  0  0
  4  5  1  0  0  0  0
  4 10  1  0  0  0  0
  5  6  2  0  0  0  0
  5 11  1  0  0  0  0
  6 23  1  0  0  0  0
  7  8  2  0  0  0  0
  7 24  1  0  0  0  0
  8  9  1  0  0  0  0
  8 25  1  0  0  0  0
  9 10  2  0  0  0  0
  9 18  1  0  0  0  0
 10 26  1  0  0  0  0
 11 12  1  0  0  0  0
 11 27  1  0  0  0  0
 12 13  2  0  0  0  0
 12 17  1  0  0  0  0
 13 14  1  0  0  0  0
 14 15  2  0  0  0  0
 14 28  1  0  0  0  0
 15 16  1  0  0  0  0
 15 29  1  0  0  0  0
 16 17  2  0  0  0  0
 16 30  1  0  0  0  0
 18 19  2  0  0  0  0
 18 20  1  0  0  0  0
 19 31  1  0  0  0  0
 19 34  1  0  0  0  0
 20 32  1  0  0  0  0
 20 33  1  0  0  0  0
M  END
$$$$
