UIP
 OpenBabel04041917503D

 65 70  0  0  1  0  0  0  0  0999 V2000
   10.4195  -11.8491   24.1527 N   0  0  0  0  0  0  0  0  0  0  0  0
   11.1254  -10.7926   23.8006 C   0  0  0  0  0  0  0  0  0  0  0  0
   10.7971   -9.6331   24.3383 N   0  0  0  0  0  0  0  0  0  0  0  0
   12.2476  -10.9122   22.8351 C   0  0  0  0  0  0  0  0  0  0  0  0
   12.5970  -12.1613   22.2915 C   0  0  0  0  0  0  0  0  0  0  0  0
   13.6553  -12.3089   21.4038 C   0  0  0  0  0  0  0  0  0  0  0  0
   14.4198  -11.2076   20.9993 C   0  0  0  0  0  0  0  0  0  0  0  0
   14.0875   -9.9514   21.5202 C   0  0  0  0  0  0  0  0  0  0  0  0
   13.0182   -9.8112   22.4264 C   0  0  0  0  0  0  0  0  0  0  0  0
   15.5597  -11.3412   20.0237 C   0  0  2  0  0  0  0  0  0  0  0  0
   15.4419  -12.5187   19.0757 N   0  3  1  0  0  0  0  0  0  0  0  0
   14.3989  -12.3877   17.9896 C   0  0  0  0  0  0  0  0  0  0  0  0
   15.1815  -12.4829   16.6937 C   0  0  0  0  0  0  0  0  0  0  0  0
   16.5913  -12.0574   17.0617 C   0  0  0  0  0  0  0  0  0  0  0  0
   16.8037  -12.6782   18.4336 C   0  0  1  0  0  0  0  0  0  0  0  0
   17.7940  -11.9198   19.3311 C   0  0  2  0  0  0  0  0  0  0  0  0
   18.8916  -12.8372   19.8970 C   0  0  2  0  0  0  0  0  0  0  0  0
   18.3603  -13.2481   21.1870 N   0  0  0  0  0  0  0  0  0  0  0  0
   17.2204  -12.5574   21.5621 C   0  0  0  0  0  0  0  0  0  0  0  0
   16.5010  -12.8016   22.5141 O   0  0  0  0  0  0  0  0  0  0  0  0
   16.9820  -11.4600   20.5530 C   0  0  2  0  0  0  0  0  0  0  0  0
   18.8746  -14.4094   21.9242 C   0  0  0  0  0  0  0  0  0  0  0  0
   19.8931  -14.0767   22.9911 C   0  0  0  0  0  0  0  0  0  0  0  0
   19.4741  -13.6492   24.2741 C   0  0  0  0  0  0  0  0  0  0  0  0
   20.4023  -13.3396   25.2783 C   0  0  0  0  0  0  0  0  0  0  0  0
   21.7395  -13.4732   24.9831 C   0  0  0  0  0  0  0  0  0  0  0  0
   22.7763  -13.2008   25.8200 O   0  0  0  0  0  0  0  0  0  0  0  0
   23.8849  -13.7094   25.0481 C   0  0  0  0  0  0  0  0  0  0  0  0
   23.5154  -14.0472   23.6909 O   0  0  0  0  0  0  0  0  0  0  0  0
   22.1626  -13.9289   23.7590 C   0  0  0  0  0  0  0  0  0  0  0  0
   21.2703  -14.2322   22.7464 C   0  0  0  0  0  0  0  0  0  0  0  0
   20.2501  -12.1353   19.9715 C   0  0  0  0  0  0  0  0  0  0  0  0
   20.8907  -12.0124   18.5928 C   0  0  0  0  0  0  0  0  0  0  0  0
   10.6128  -12.7781   23.7932 H   0  0  0  0  0  0  0  0  0  0  0  0
   11.2983   -8.7821   24.1294 H   0  0  0  0  0  0  0  0  0  0  0  0
   10.0379   -9.5452   24.9983 H   0  0  0  0  0  0  0  0  0  0  0  0
   12.0703  -13.0760   22.5506 H   0  0  0  0  0  0  0  0  0  0  0  0
   13.8690  -13.3168   21.0613 H   0  0  0  0  0  0  0  0  0  0  0  0
   14.6472   -9.0617   21.2343 H   0  0  0  0  0  0  0  0  0  0  0  0
   12.8303   -8.8056   22.7937 H   0  0  0  0  0  0  0  0  0  0  0  0
   15.5235  -10.4578   19.3671 H   0  0  0  0  0  0  0  0  0  0  0  0
   13.8841  -11.4284   18.1006 H   0  0  0  0  0  0  0  0  0  0  0  0
   13.6838  -13.2077   18.1099 H   0  0  0  0  0  0  0  0  0  0  0  0
   14.7491  -11.8484   15.9145 H   0  0  0  0  0  0  0  0  0  0  0  0
   15.1777  -13.5158   16.3278 H   0  0  0  0  0  0  0  0  0  0  0  0
   16.6472  -10.9629   17.1051 H   0  0  0  0  0  0  0  0  0  0  0  0
   17.3337  -12.4068   16.3397 H   0  0  0  0  0  0  0  0  0  0  0  0
   16.9849  -13.7567   18.3673 H   0  0  0  0  0  0  0  0  0  0  0  0
   18.2035  -11.0568   18.7949 H   0  0  0  0  0  0  0  0  0  0  0  0
   18.9930  -13.7375   19.2795 H   0  0  0  0  0  0  0  0  0  0  0  0
   17.3509  -10.5194   20.9773 H   0  0  0  0  0  0  0  0  0  0  0  0
   19.2869  -15.1239   21.2024 H   0  0  0  0  0  0  0  0  0  0  0  0
   18.0252  -14.9132   22.4027 H   0  0  0  0  0  0  0  0  0  0  0  0
   18.4124  -13.5752   24.5045 H   0  0  0  0  0  0  0  0  0  0  0  0
   20.0843  -13.0258   26.2664 H   0  0  0  0  0  0  0  0  0  0  0  0
   24.2610  -14.6100   25.5493 H   0  0  0  0  0  0  0  0  0  0  0  0
   24.6878  -12.9643   25.0209 H   0  0  0  0  0  0  0  0  0  0  0  0
   21.6481  -14.5890   21.7945 H   0  0  0  0  0  0  0  0  0  0  0  0
   20.9362  -12.7113   20.5929 H   0  0  0  0  0  0  0  0  0  0  0  0
   20.1590  -11.1473   20.4369 H   0  0  0  0  0  0  0  0  0  0  0  0
   21.8811  -11.5547   18.6737 H   0  0  0  0  0  0  0  0  0  0  0  0
   20.2880  -11.3997   17.9167 H   0  0  0  0  0  0  0  0  0  0  0  0
   21.0156  -13.0003   18.1351 H   0  0  0  0  0  0  0  0  0  0  0  0
    9.6576  -11.8020   24.8125 H   0  0  0  0  0  0  0  0  0  0  0  0
   15.2632  -13.3726   19.6180 H   0  0  0  0  0  0  0  0  0  0  0  0
  1  2  2  0  0  0  0
  1 34  1  0  0  0  0
  1 64  1  0  0  0  0
  2  3  1  0  0  0  0
  2  4  1  0  0  0  0
  3 35  1  0  0  0  0
  3 36  1  0  0  0  0
  4  5  2  0  0  0  0
  4  9  1  0  0  0  0
  5  6  1  0  0  0  0
  5 37  1  0  0  0  0
  6  7  2  0  0  0  0
  6 38  1  0  0  0  0
  7  8  1  0  0  0  0
  7 10  1  0  0  0  0
  8  9  2  0  0  0  0
  8 39  1  0  0  0  0
  9 40  1  0  0  0  0
 10 11  1  0  0  0  0
 10 21  1  0  0  0  0
 10 41  1  6  0  0  0
 11 12  1  0  0  0  0
 11 15  1  0  0  0  0
 11 65  1  1  0  0  0
 12 13  1  0  0  0  0
 12 42  1  0  0  0  0
 12 43  1  0  0  0  0
 13 14  1  0  0  0  0
 13 44  1  0  0  0  0
 13 45  1  0  0  0  0
 14 15  1  0  0  0  0
 14 46  1  0  0  0  0
 14 47  1  0  0  0  0
 15 16  1  0  0  0  0
 15 48  1  6  0  0  0
 16 17  1  0  0  0  0
 16 21  1  0  0  0  0
 16 49  1  6  0  0  0
 17 18  1  0  0  0  0
 17 32  1  0  0  0  0
 17 50  1  6  0  0  0
 18 19  1  0  0  0  0
 18 22  1  0  0  0  0
 19 20  2  0  0  0  0
 19 21  1  0  0  0  0
 21 51  1  1  0  0  0
 22 23  1  0  0  0  0
 22 52  1  0  0  0  0
 22 53  1  0  0  0  0
 23 24  2  0  0  0  0
 23 31  1  0  0  0  0
 24 25  1  0  0  0  0
 24 54  1  0  0  0  0
 25 26  2  0  0  0  0
 25 55  1  0  0  0  0
 26 27  1  0  0  0  0
 26 30  1  0  0  0  0
 27 28  1  0  0  0  0
 28 29  1  0  0  0  0
 28 56  1  0  0  0  0
 28 57  1  0  0  0  0
 29 30  1  0  0  0  0
 30 31  2  0  0  0  0
 31 58  1  0  0  0  0
 32 33  1  0  0  0  0
 32 59  1  0  0  0  0
 32 60  1  0  0  0  0
 33 61  1  0  0  0  0
 33 62  1  0  0  0  0
 33 63  1  0  0  0  0
M  CHG  1  11   1
M  END
$$$$
