UIR
 OpenBabel04041917443D

 66 72  0  0  1  0  0  0  0  0999 V2000
   -5.0284    9.6004   19.7386 N   0  0  0  0  0  0  0  0  0  0  0  0
   -3.7324    9.3949   19.6178 C   0  0  0  0  0  0  0  0  0  0  0  0
   -3.1100    8.1152   20.0706 C   0  0  0  0  0  0  0  0  0  0  0  0
   -3.8702    7.1061   20.6815 C   0  0  0  0  0  0  0  0  0  0  0  0
   -3.2777    5.9347   21.1650 C   0  0  0  0  0  0  0  0  0  0  0  0
   -1.8964    5.7195   21.0650 C   0  0  0  0  0  0  0  0  0  0  0  0
   -1.2213    4.4736   21.5890 C   0  0  2  0  0  0  0  0  0  0  0  0
   -2.0949    3.2442   21.5337 N   0  3  1  0  0  0  0  0  0  0  0  0
   -2.4084    2.7457   20.1591 C   0  0  0  0  0  0  0  0  0  0  0  0
   -1.5028    1.5558   19.9470 C   0  0  0  0  0  0  0  0  0  0  0  0
   -0.7044    1.3427   21.2270 C   0  0  0  0  0  0  0  0  0  0  0  0
   -1.3676    2.1756   22.3132 C   0  0  1  0  0  0  0  0  0  0  0  0
   -0.3929    2.9304   23.2553 C   0  0  2  0  0  0  0  0  0  0  0  0
    0.4247    2.6721   25.6592 C   0  0  0  0  0  0  0  0  0  0  0  0
   -0.7540    2.6915   24.7286 C   0  0  1  0  0  0  0  0  0  0  0  0
    0.3271    1.8015   26.8935 C   0  0  0  0  0  0  0  0  0  0  0  0
    1.2796    1.4329   25.7954 C   0  0  0  0  0  0  0  0  0  0  0  0
   -1.6545    3.7825   25.0370 N   0  0  0  0  0  0  0  0  0  0  0  0
   -1.7151    4.7443   24.0568 C   0  0  0  0  0  0  0  0  0  0  0  0
   -2.5246    5.6456   23.9853 O   0  0  0  0  0  0  0  0  0  0  0  0
   -0.6723    4.4295   23.0082 C   0  0  2  0  0  0  0  0  0  0  0  0
   -2.6414    3.7192   26.1175 C   0  0  0  0  0  0  0  0  0  0  0  0
   -2.4741    4.8197   27.1402 C   0  0  0  0  0  0  0  0  0  0  0  0
   -1.3057    4.9047   27.9137 C   0  0  0  0  0  0  0  0  0  0  0  0
   -1.2054    5.9089   28.8532 C   0  0  0  0  0  0  0  0  0  0  0  0
   -0.1426    6.1192   29.6755 O   0  0  0  0  0  0  0  0  0  0  0  0
   -0.6027    7.2627   30.4288 C   0  0  0  0  0  0  0  0  0  0  0  0
   -1.9151    7.7155   30.0292 O   0  0  0  0  0  0  0  0  0  0  0  0
   -2.2132    6.8170   29.0540 C   0  0  0  0  0  0  0  0  0  0  0  0
   -3.3789    6.7721   28.3227 C   0  0  0  0  0  0  0  0  0  0  0  0
   -3.5072    5.7648   27.3565 C   0  0  0  0  0  0  0  0  0  0  0  0
   -1.1355    6.6918   20.4122 C   0  0  0  0  0  0  0  0  0  0  0  0
   -1.7328    7.8629   19.9246 C   0  0  0  0  0  0  0  0  0  0  0  0
   -3.0004   10.3548   19.0925 N   0  0  0  0  0  0  0  0  0  0  0  0
   -5.4637   10.4672   19.4461 H   0  0  0  0  0  0  0  0  0  0  0  0
   -4.9434    7.1930   20.8303 H   0  0  0  0  0  0  0  0  0  0  0  0
   -3.9348    5.2203   21.6571 H   0  0  0  0  0  0  0  0  0  0  0  0
   -0.3862    4.2488   20.9076 H   0  0  0  0  0  0  0  0  0  0  0  0
   -2.2423    3.5444   19.4293 H   0  0  0  0  0  0  0  0  0  0  0  0
   -3.4678    2.4712   20.1516 H   0  0  0  0  0  0  0  0  0  0  0  0
   -0.8268    1.7430   19.1051 H   0  0  0  0  0  0  0  0  0  0  0  0
   -2.0967    0.6733   19.6895 H   0  0  0  0  0  0  0  0  0  0  0  0
    0.3360    1.6423   21.0628 H   0  0  0  0  0  0  0  0  0  0  0  0
   -0.6933    0.2844   21.5071 H   0  0  0  0  0  0  0  0  0  0  0  0
   -2.1390    1.6009   22.8367 H   0  0  0  0  0  0  0  0  0  0  0  0
    0.6499    2.6768   23.0307 H   0  0  0  0  0  0  0  0  0  0  0  0
    0.9244    3.6310   25.7597 H   0  0  0  0  0  0  0  0  0  0  0  0
   -1.2929    1.7421   24.8238 H   0  0  0  0  0  0  0  0  0  0  0  0
   -0.5621    1.1949   27.0338 H   0  0  0  0  0  0  0  0  0  0  0  0
    0.7492    2.1576   27.8282 H   0  0  0  0  0  0  0  0  0  0  0  0
    2.3364    1.5367   26.0266 H   0  0  0  0  0  0  0  0  0  0  0  0
    1.0513    0.5597   25.1961 H   0  0  0  0  0  0  0  0  0  0  0  0
    0.1958    5.0704   23.1667 H   0  0  0  0  0  0  0  0  0  0  0  0
   -2.6036    2.7403   26.6064 H   0  0  0  0  0  0  0  0  0  0  0  0
   -3.6290    3.8013   25.6442 H   0  0  0  0  0  0  0  0  0  0  0  0
   -0.4890    4.2071   27.8015 H   0  0  0  0  0  0  0  0  0  0  0  0
    0.1097    8.0830   30.2861 H   0  0  0  0  0  0  0  0  0  0  0  0
   -0.6257    7.0004   31.4927 H   0  0  0  0  0  0  0  0  0  0  0  0
   -4.1708    7.4918   28.5002 H   0  0  0  0  0  0  0  0  0  0  0  0
   -4.4254    5.7235   26.7736 H   0  0  0  0  0  0  0  0  0  0  0  0
   -0.0623    6.5561   20.2696 H   0  0  0  0  0  0  0  0  0  0  0  0
   -1.0676    8.5689   19.4343 H   0  0  0  0  0  0  0  0  0  0  0  0
   -1.9986   10.2778   18.9870 H   0  0  0  0  0  0  0  0  0  0  0  0
   -3.4021   11.2319   18.7853 H   0  0  0  0  0  0  0  0  0  0  0  0
   -5.6558    8.9198   20.1418 H   0  0  0  0  0  0  0  0  0  0  0  0
   -2.9751    3.4453   22.0261 H   0  0  0  0  0  0  0  0  0  0  0  0
  1  2  2  0  0  0  0
  1 35  1  0  0  0  0
  1 65  1  0  0  0  0
  2  3  1  0  0  0  0
  2 34  1  0  0  0  0
  3  4  2  0  0  0  0
  3 33  1  0  0  0  0
  4  5  1  0  0  0  0
  4 36  1  0  0  0  0
  5  6  2  0  0  0  0
  5 37  1  0  0  0  0
  6  7  1  0  0  0  0
  6 32  1  0  0  0  0
  7  8  1  0  0  0  0
  7 21  1  0  0  0  0
  7 38  1  6  0  0  0
  8  9  1  0  0  0  0
  8 12  1  0  0  0  0
  8 66  1  1  0  0  0
  9 10  1  0  0  0  0
  9 39  1  0  0  0  0
  9 40  1  0  0  0  0
 10 11  1  0  0  0  0
 10 41  1  0  0  0  0
 10 42  1  0  0  0  0
 11 12  1  0  0  0  0
 11 43  1  0  0  0  0
 11 44  1  0  0  0  0
 12 13  1  0  0  0  0
 12 45  1  1  0  0  0
 13 15  1  0  0  0  0
 13 21  1  0  0  0  0
 13 46  1  6  0  0  0
 14 15  1  0  0  0  0
 14 16  1  0  0  0  0
 14 17  1  0  0  0  0
 14 47  1  0  0  0  0
 15 18  1  0  0  0  0
 15 48  1  1  0  0  0
 16 17  1  0  0  0  0
 16 49  1  0  0  0  0
 16 50  1  0  0  0  0
 17 51  1  0  0  0  0
 17 52  1  0  0  0  0
 18 19  1  0  0  0  0
 18 22  1  0  0  0  0
 19 20  2  0  0  0  0
 19 21  1  0  0  0  0
 21 53  1  1  0  0  0
 22 23  1  0  0  0  0
 22 54  1  0  0  0  0
 22 55  1  0  0  0  0
 23 24  2  0  0  0  0
 23 31  1  0  0  0  0
 24 25  1  0  0  0  0
 24 56  1  0  0  0  0
 25 26  1  0  0  0  0
 25 29  2  0  0  0  0
 26 27  1  0  0  0  0
 27 28  1  0  0  0  0
 27 57  1  0  0  0  0
 27 58  1  0  0  0  0
 28 29  1  0  0  0  0
 29 30  1  0  0  0  0
 30 31  2  0  0  0  0
 30 59  1  0  0  0  0
 31 60  1  0  0  0  0
 32 33  2  0  0  0  0
 32 61  1  0  0  0  0
 33 62  1  0  0  0  0
 34 63  1  0  0  0  0
 34 64  1  0  0  0  0
M  CHG  1   8   1
M  END
$$$$
