UIZ
 OpenBabel04041917503D

 59 64  0  0  1  0  0  0  0  0999 V2000
   10.2841   67.3445    7.0214 N   0  0  0  0  0  0  0  0  0  0  0  0
   11.5390   67.0675    7.2986 C   0  0  0  0  0  0  0  0  0  0  0  0
   12.2328   66.3755    6.4340 N   0  0  0  0  0  0  0  0  0  0  0  0
   12.1494   67.5136    8.5566 C   0  0  0  0  0  0  0  0  0  0  0  0
   13.4865   67.1923    8.8420 C   0  0  0  0  0  0  0  0  0  0  0  0
   14.0800   67.6050   10.0290 C   0  0  0  0  0  0  0  0  0  0  0  0
   13.3401   68.3504   10.9498 C   0  0  0  0  0  0  0  0  0  0  0  0
   13.9830   68.8115   12.2194 C   0  0  1  0  0  0  0  0  0  0  0  0
   14.4957   70.2405   12.2947 C   0  0  1  0  0  0  0  0  0  0  0  0
   13.4504   71.3558   12.0765 C   0  0  0  0  0  0  0  0  0  0  0  0
   12.4531   71.3116   11.4172 O   0  0  0  0  0  0  0  0  0  0  0  0
   13.7915   72.4019   12.9440 N   0  0  0  0  0  0  0  0  0  0  0  0
   12.8642   73.5553   13.0632 C   0  0  0  0  0  0  0  0  0  0  0  0
   12.9772   74.6038   11.9564 C   0  0  0  0  0  0  0  0  0  0  0  0
   11.8277   75.0459   11.2420 C   0  0  0  0  0  0  0  0  0  0  0  0
   11.9276   76.0405   10.2382 C   0  0  0  0  0  0  0  0  0  0  0  0
   13.1911   76.5762    9.9785 C   0  0  0  0  0  0  0  0  0  0  0  0
   13.4977   77.5349    9.0515 O   0  0  0  0  0  0  0  0  0  0  0  0
   14.9315   77.6867    9.2238 C   0  0  0  0  0  0  0  0  0  0  0  0
   15.4403   76.8099   10.2616 O   0  0  0  0  0  0  0  0  0  0  0  0
   14.3075   76.1635   10.6718 C   0  0  0  0  0  0  0  0  0  0  0  0
   14.2268   75.1927   11.6660 C   0  0  0  0  0  0  0  0  0  0  0  0
   14.6827   71.9380   14.0046 C   0  0  0  0  0  0  0  0  0  0  0  0
   14.7986   70.4186   13.7873 C   0  0  1  0  0  0  0  0  0  0  0  0
   13.6944   69.6078   14.4966 C   0  0  2  0  0  0  0  0  0  0  0  0
   14.2579   68.6536   15.5351 C   0  0  0  0  0  0  0  0  0  0  0  0
   13.3148   67.4669   15.5036 C   0  0  0  0  0  0  0  0  0  0  0  0
   13.0107   67.2659   14.0326 C   0  0  0  0  0  0  0  0  0  0  0  0
   13.1033   68.6630   13.4452 N   0  3  2  0  0  0  0  0  0  0  0  0
   12.0022   68.6502   10.6801 C   0  0  0  0  0  0  0  0  0  0  0  0
   11.4121   68.2519    9.4911 C   0  0  0  0  0  0  0  0  0  0  0  0
    9.6804   67.8756    7.6319 H   0  0  0  0  0  0  0  0  0  0  0  0
   13.1948   66.1311    6.5881 H   0  0  0  0  0  0  0  0  0  0  0  0
   11.8187   66.0672    5.5650 H   0  0  0  0  0  0  0  0  0  0  0  0
   14.0846   66.6183    8.1417 H   0  0  0  0  0  0  0  0  0  0  0  0
   15.1188   67.3377   10.2252 H   0  0  0  0  0  0  0  0  0  0  0  0
   14.8425   68.1507   12.4001 H   0  0  0  0  0  0  0  0  0  0  0  0
   15.3676   70.3939   11.6455 H   0  0  0  0  0  0  0  0  0  0  0  0
   13.0335   74.0453   14.0268 H   0  0  0  0  0  0  0  0  0  0  0  0
   11.8404   73.1570   13.0460 H   0  0  0  0  0  0  0  0  0  0  0  0
   10.8464   74.6066   11.4555 H   0  0  0  0  0  0  0  0  0  0  0  0
   11.0389   76.3684    9.6953 H   0  0  0  0  0  0  0  0  0  0  0  0
   15.1670   78.7375    9.4747 H   0  0  0  0  0  0  0  0  0  0  0  0
   15.4429   77.4642    8.2683 H   0  0  0  0  0  0  0  0  0  0  0  0
   15.1063   74.8703   12.2168 H   0  0  0  0  0  0  0  0  0  0  0  0
   14.2686   72.1747   14.9903 H   0  0  0  0  0  0  0  0  0  0  0  0
   15.6670   72.4177   13.9039 H   0  0  0  0  0  0  0  0  0  0  0  0
   15.7829   70.0350   14.0954 H   0  0  0  0  0  0  0  0  0  0  0  0
   12.8781   70.2288   14.8885 H   0  0  0  0  0  0  0  0  0  0  0  0
   14.2970   69.1255   16.5210 H   0  0  0  0  0  0  0  0  0  0  0  0
   15.2752   68.3355   15.2671 H   0  0  0  0  0  0  0  0  0  0  0  0
   12.4036   67.6986   16.0697 H   0  0  0  0  0  0  0  0  0  0  0  0
   13.7778   66.5771   15.9390 H   0  0  0  0  0  0  0  0  0  0  0  0
   12.0052   66.8660   13.8569 H   0  0  0  0  0  0  0  0  0  0  0  0
   13.7506   66.6285   13.5382 H   0  0  0  0  0  0  0  0  0  0  0  0
   11.4120   69.2253   11.3873 H   0  0  0  0  0  0  0  0  0  0  0  0
   10.3822   68.5232    9.3020 H   0  0  0  0  0  0  0  0  0  0  0  0
    9.8741   67.0299    6.1520 H   0  0  0  0  0  0  0  0  0  0  0  0
   12.1517   68.9687   13.2002 H   0  0  0  0  0  0  0  0  0  0  0  0
  1  2  2  0  0  0  0
  1 32  1  0  0  0  0
  1 58  1  0  0  0  0
  2  3  1  0  0  0  0
  2  4  1  0  0  0  0
  3 33  1  0  0  0  0
  3 34  1  0  0  0  0
  4  5  2  0  0  0  0
  4 31  1  0  0  0  0
  5  6  1  0  0  0  0
  5 35  1  0  0  0  0
  6  7  2  0  0  0  0
  6 36  1  0  0  0  0
  7  8  1  0  0  0  0
  7 30  1  0  0  0  0
  8  9  1  0  0  0  0
  8 29  1  0  0  0  0
  8 37  1  1  0  0  0
  9 10  1  0  0  0  0
  9 24  1  0  0  0  0
  9 38  1  6  0  0  0
 10 11  2  0  0  0  0
 10 12  1  0  0  0  0
 12 13  1  0  0  0  0
 12 23  1  0  0  0  0
 13 14  1  0  0  0  0
 13 39  1  0  0  0  0
 13 40  1  0  0  0  0
 14 15  2  0  0  0  0
 14 22  1  0  0  0  0
 15 16  1  0  0  0  0
 15 41  1  0  0  0  0
 16 17  2  0  0  0  0
 16 42  1  0  0  0  0
 17 18  1  0  0  0  0
 17 21  1  0  0  0  0
 18 19  1  0  0  0  0
 19 20  1  0  0  0  0
 19 43  1  0  0  0  0
 19 44  1  0  0  0  0
 20 21  1  0  0  0  0
 21 22  2  0  0  0  0
 22 45  1  0  0  0  0
 23 24  1  0  0  0  0
 23 46  1  0  0  0  0
 23 47  1  0  0  0  0
 24 25  1  0  0  0  0
 24 48  1  1  0  0  0
 25 26  1  0  0  0  0
 25 29  1  0  0  0  0
 25 49  1  1  0  0  0
 26 27  1  0  0  0  0
 26 50  1  0  0  0  0
 26 51  1  0  0  0  0
 27 28  1  0  0  0  0
 27 52  1  0  0  0  0
 27 53  1  0  0  0  0
 28 29  1  0  0  0  0
 28 54  1  0  0  0  0
 28 55  1  0  0  0  0
 29 59  1  6  0  0  0
 30 31  2  0  0  0  0
 30 56  1  0  0  0  0
 31 57  1  0  0  0  0
M  CHG  1  29   1
M  END
$$$$
