UMF
 OpenBabel04041917253D

 31 32  0  0  1  0  0  0  0  0999 V2000
   36.2421   -2.2814   12.3083 N   0  3  0  0  0  0  0  0  0  0  0  0
   35.1165   -2.4905   11.5090 C   0  0  0  0  0  0  0  0  0  0  0  0
   34.7860   -1.7940   10.5567 O   0  0  0  0  0  0  0  0  0  0  0  0
   34.3640   -3.6068   11.8213 N   0  3  0  0  0  0  0  0  0  0  0  0
   34.6674   -4.5629   12.7476 C   0  0  0  0  0  0  0  0  0  0  0  0
   33.9747   -5.5572   12.9546 O   0  0  0  0  0  0  0  0  0  0  0  0
   35.9037   -4.3229   13.5038 C   0  0  0  0  0  0  0  0  0  0  0  0
   36.6135   -3.2239   13.2551 C   0  0  0  0  0  0  0  0  0  0  0  0
   39.3255   -0.5334   15.4729 O   0  0  0  0  0  0  0  0  0  0  0  0
   39.8394   -0.0730   14.2219 C   0  0  0  0  0  0  0  0  0  0  0  0
   38.7978    0.1000   13.0998 C   0  0  1  0  0  0  0  0  0  0  0  0
   38.3373   -1.2292   12.7691 O   0  0  0  0  0  0  0  0  0  0  0  0
   37.5542    0.9579   13.3347 C   0  0  1  0  0  0  0  0  0  0  0  0
   37.8384    2.2880   12.9403 O   0  0  0  0  0  0  0  0  0  0  0  0
   36.4969    0.2904   12.4394 C   0  0  1  0  0  0  0  0  0  0  0  0
   36.3211    0.9604   11.2622 F   0  0  0  0  0  0  0  0  0  0  0  0
   37.0888   -1.0827   12.0674 C   0  0  2  0  0  0  0  0  0  0  0  0
   35.5292    3.0296   13.4885 O   0  0  0  0  0  0  0  0  0  0  0  0
   36.9695    3.4907   13.6436 P   0  0  0  0  0  0  0  0  0  0  0  0
   37.4672    3.4666   15.0805 O   0  0  0  0  0  0  0  0  0  0  0  0
   37.3596    4.7127   12.8525 O   0  0  0  0  0  0  0  0  0  0  0  0
   33.5337   -3.7498   11.2687 H   0  0  0  0  0  0  0  0  0  0  0  0
   36.2086   -5.0616   14.2312 H   0  0  0  0  0  0  0  0  0  0  0  0
   37.5426   -3.0530   13.7893 H   0  0  0  0  0  0  0  0  0  0  0  0
   38.6141   -1.1608   15.2761 H   0  0  0  0  0  0  0  0  0  0  0  0
   40.5349   -0.8638   13.9089 H   0  0  0  0  0  0  0  0  0  0  0  0
   40.4314    0.8298   14.3919 H   0  0  0  0  0  0  0  0  0  0  0  0
   39.3424    0.4783   12.2250 H   0  0  0  0  0  0  0  0  0  0  0  0
   37.2391    0.9091   14.3840 H   0  0  0  0  0  0  0  0  0  0  0  0
   35.5267    0.2006   12.9364 H   0  0  0  0  0  0  0  0  0  0  0  0
   37.3376   -1.0834   10.9960 H   0  0  0  0  0  0  0  0  0  0  0  0
  1  2  1  0  0  0  0
  1  8  1  0  0  0  0
  1 17  1  0  0  0  0
  2  3  2  0  0  0  0
  2  4  1  0  0  0  0
  4  5  1  0  0  0  0
  4 22  1  0  0  0  0
  5  6  2  0  0  0  0
  5  7  1  0  0  0  0
  7  8  2  0  0  0  0
  7 23  1  0  0  0  0
  8 24  1  0  0  0  0
  9 10  1  0  0  0  0
  9 25  1  0  0  0  0
 10 11  1  0  0  0  0
 10 26  1  0  0  0  0
 10 27  1  0  0  0  0
 11 12  1  0  0  0  0
 11 13  1  0  0  0  0
 11 28  1  6  0  0  0
 12 17  1  0  0  0  0
 13 14  1  0  0  0  0
 13 15  1  0  0  0  0
 13 29  1  1  0  0  0
 14 19  1  0  0  0  0
 15 16  1  0  0  0  0
 15 17  1  0  0  0  0
 15 30  1  1  0  0  0
 17 31  1  6  0  0  0
 18 19  2  0  0  0  0
 19 20  1  0  0  0  0
 19 21  1  0  0  0  0
M  CHG  2   1   1   4   1
M  END
$$$$
