UMP
 OpenBabel04041917023D

 31 32  0  0  1  0  0  0  0  0999 V2000
   14.4526   48.8979  -54.0332 N   0  3  0  0  0  0  0  0  0  0  0  0
   13.6931   47.8283  -53.5060 C   0  0  0  0  0  0  0  0  0  0  0  0
   12.9793   48.1075  -52.3631 N   0  3  0  0  0  0  0  0  0  0  0  0
   12.9189   49.3270  -51.7293 C   0  0  0  0  0  0  0  0  0  0  0  0
   13.6911   50.3960  -52.3372 C   0  0  0  0  0  0  0  0  0  0  0  0
   14.4075   50.1256  -53.4449 C   0  0  0  0  0  0  0  0  0  0  0  0
   13.6497   46.6821  -53.9513 O   0  0  0  0  0  0  0  0  0  0  0  0
   12.2663   49.5147  -50.6990 O   0  0  0  0  0  0  0  0  0  0  0  0
   15.4718   48.6925  -55.0830 C   0  0  1  0  0  0  0  0  0  0  0  0
   14.9841   48.3803  -56.4775 C   0  0  0  0  0  0  0  0  0  0  0  0
   16.2762   48.5892  -57.2551 C   0  0  1  0  0  0  0  0  0  0  0  0
   16.8090   49.9015  -56.6979 C   0  0  2  0  0  0  0  0  0  0  0  0
   17.1894   47.5353  -56.8618 O   0  0  0  0  0  0  0  0  0  0  0  0
   16.3436   49.8757  -55.2835 O   0  0  0  0  0  0  0  0  0  0  0  0
   16.3000   51.1371  -57.4884 C   0  0  0  0  0  0  0  0  0  0  0  0
   16.8897   51.2852  -58.7881 O   0  0  0  0  0  0  0  0  0  0  0  0
   15.8184   51.6841  -59.9859 P   0  0  0  0  0  0  0  0  0  0  0  0
   15.2672   53.0344  -59.5452 O   0  0  0  0  0  0  0  0  0  0  0  0
   16.6262   51.7407  -61.2801 O   0  0  0  0  0  0  0  0  0  0  0  0
   14.8345   50.5302  -59.9152 O   0  0  0  0  0  0  0  0  0  0  0  0
   12.4454   47.3714  -51.9354 H   0  0  0  0  0  0  0  0  0  0  0  0
   13.7143   51.3755  -51.8879 H   0  0  0  0  0  0  0  0  0  0  0  0
   15.0060   50.9090  -53.8831 H   0  0  0  0  0  0  0  0  0  0  0  0
   16.1146   47.8814  -54.7025 H   0  0  0  0  0  0  0  0  0  0  0  0
   14.2099   49.0922  -56.7859 H   0  0  0  0  0  0  0  0  0  0  0  0
   14.5915   47.3649  -56.5494 H   0  0  0  0  0  0  0  0  0  0  0  0
   16.1626   48.5747  -58.3380 H   0  0  0  0  0  0  0  0  0  0  0  0
   17.9094   49.9176  -56.6859 H   0  0  0  0  0  0  0  0  0  0  0  0
   16.7886   46.7064  -57.1634 H   0  0  0  0  0  0  0  0  0  0  0  0
   16.5141   52.0493  -56.9226 H   0  0  0  0  0  0  0  0  0  0  0  0
   15.2123   51.0680  -57.5676 H   0  0  0  0  0  0  0  0  0  0  0  0
  1  2  1  0  0  0  0
  1  6  1  0  0  0  0
  1  9  1  0  0  0  0
  2  3  1  0  0  0  0
  2  7  2  0  0  0  0
  3  4  1  0  0  0  0
  3 21  1  0  0  0  0
  4  5  1  0  0  0  0
  4  8  2  0  0  0  0
  5  6  2  0  0  0  0
  5 22  1  0  0  0  0
  6 23  1  0  0  0  0
  9 10  1  0  0  0  0
  9 14  1  0  0  0  0
  9 24  1  1  0  0  0
 10 11  1  0  0  0  0
 10 25  1  0  0  0  0
 10 26  1  0  0  0  0
 11 12  1  0  0  0  0
 11 13  1  0  0  0  0
 11 27  1  6  0  0  0
 12 14  1  0  0  0  0
 12 15  1  0  0  0  0
 12 28  1  6  0  0  0
 13 29  1  0  0  0  0
 15 16  1  0  0  0  0
 15 30  1  0  0  0  0
 15 31  1  0  0  0  0
 16 17  1  0  0  0  0
 17 18  2  0  0  0  0
 17 19  1  0  0  0  0
 17 20  1  0  0  0  0
M  CHG  2   1   1   3   1
M  END
$$$$
