UMP
 OpenBabel04041914043D

 31 32  0  0  1  0  0  0  0  0999 V2000
   14.6438   49.3780  -54.1001 N   0  3  0  0  0  0  0  0  0  0  0  0
   13.7691   48.3792  -53.6188 C   0  0  0  0  0  0  0  0  0  0  0  0
   12.9175   48.7855  -52.6028 N   0  3  0  0  0  0  0  0  0  0  0  0
   12.8651   50.0320  -52.0382 C   0  0  0  0  0  0  0  0  0  0  0  0
   13.8359   51.0055  -52.5950 C   0  0  0  0  0  0  0  0  0  0  0  0
   14.6408   50.6387  -53.5481 C   0  0  0  0  0  0  0  0  0  0  0  0
   13.7023   47.2124  -54.0117 O   0  0  0  0  0  0  0  0  0  0  0  0
   12.0920   50.3185  -51.1358 O   0  0  0  0  0  0  0  0  0  0  0  0
   15.6090   49.1523  -55.1991 C   0  0  1  0  0  0  0  0  0  0  0  0
   14.9964   48.8651  -56.5419 C   0  0  0  0  0  0  0  0  0  0  0  0
   16.2244   49.0027  -57.4190 C   0  0  1  0  0  0  0  0  0  0  0  0
   16.8901   50.2855  -56.9399 C   0  0  2  0  0  0  0  0  0  0  0  0
   17.1009   47.8987  -57.0864 O   0  0  0  0  0  0  0  0  0  0  0  0
   16.5306   50.2962  -55.4859 O   0  0  0  0  0  0  0  0  0  0  0  0
   16.3335   51.5222  -57.7013 C   0  0  0  0  0  0  0  0  0  0  0  0
   16.8219   51.5987  -59.0624 O   0  0  0  0  0  0  0  0  0  0  0  0
   15.7612   52.2319  -60.1968 P   0  0  0  0  0  0  0  0  0  0  0  0
   14.7096   51.1191  -60.2641 O   0  0  0  0  0  0  0  0  0  0  0  0
   15.2710   53.5363  -59.5960 O   0  0  0  0  0  0  0  0  0  0  0  0
   16.4808   52.4423  -61.5315 O   0  0  0  0  0  0  0  0  0  0  0  0
   12.2654   48.0981  -52.2465 H   0  0  0  0  0  0  0  0  0  0  0  0
   13.8516   52.0213  -52.1938 H   0  0  0  0  0  0  0  0  0  0  0  0
   15.3737   51.3200  -53.9919 H   0  0  0  0  0  0  0  0  0  0  0  0
   16.2156   48.3161  -54.8412 H   0  0  0  0  0  0  0  0  0  0  0  0
   14.2276   49.6034  -56.8011 H   0  0  0  0  0  0  0  0  0  0  0  0
   14.5696   47.8659  -56.5730 H   0  0  0  0  0  0  0  0  0  0  0  0
   15.9910   49.0097  -58.4827 H   0  0  0  0  0  0  0  0  0  0  0  0
   17.9941   50.2604  -57.0762 H   0  0  0  0  0  0  0  0  0  0  0  0
   16.6557   47.0850  -57.3574 H   0  0  0  0  0  0  0  0  0  0  0  0
   16.6473   52.4313  -57.1712 H   0  0  0  0  0  0  0  0  0  0  0  0
   15.2403   51.4692  -57.6620 H   0  0  0  0  0  0  0  0  0  0  0  0
  1  2  1  0  0  0  0
  1  6  1  0  0  0  0
  1  9  1  0  0  0  0
  2  3  1  0  0  0  0
  2  7  2  0  0  0  0
  3  4  1  0  0  0  0
  3 21  1  0  0  0  0
  4  5  1  0  0  0  0
  4  8  2  0  0  0  0
  5  6  2  0  0  0  0
  5 22  1  0  0  0  0
  6 23  1  0  0  0  0
  9 10  1  0  0  0  0
  9 14  1  0  0  0  0
  9 24  1  1  0  0  0
 10 11  1  0  0  0  0
 10 25  1  0  0  0  0
 10 26  1  0  0  0  0
 11 12  1  0  0  0  0
 11 13  1  0  0  0  0
 11 27  1  6  0  0  0
 12 14  1  0  0  0  0
 12 15  1  0  0  0  0
 12 28  1  6  0  0  0
 13 29  1  0  0  0  0
 15 16  1  0  0  0  0
 15 30  1  0  0  0  0
 15 31  1  0  0  0  0
 16 17  1  0  0  0  0
 17 18  2  0  0  0  0
 17 19  1  0  0  0  0
 17 20  1  0  0  0  0
M  CHG  2   1   1   3   1
M  END
$$$$
