UMP
 OpenBabel04041915113D

 31 32  0  0  1  0  0  0  0  0999 V2000
   14.5740   46.3269  -51.9333 N   0  3  0  0  0  0  0  0  0  0  0  0
   14.3956   44.9848  -51.5550 C   0  0  0  0  0  0  0  0  0  0  0  0
   13.4483   44.7232  -50.6043 N   0  3  0  0  0  0  0  0  0  0  0  0
   12.6038   45.6199  -50.0325 C   0  0  0  0  0  0  0  0  0  0  0  0
   12.8428   47.0145  -50.4504 C   0  0  0  0  0  0  0  0  0  0  0  0
   13.7742   47.3073  -51.3562 C   0  0  0  0  0  0  0  0  0  0  0  0
   15.0098   44.0268  -52.0259 O   0  0  0  0  0  0  0  0  0  0  0  0
   11.7188   45.3060  -49.2330 O   0  0  0  0  0  0  0  0  0  0  0  0
   15.4658   46.5119  -53.1181 C   0  0  1  0  0  0  0  0  0  0  0  0
   14.7443   46.3702  -54.4462 C   0  0  0  0  0  0  0  0  0  0  0  0
   15.9274   46.4735  -55.3838 C   0  0  1  0  0  0  0  0  0  0  0  0
   16.7123   47.6451  -54.7688 C   0  0  2  0  0  0  0  0  0  0  0  0
   16.6634   45.2344  -55.2577 O   0  0  0  0  0  0  0  0  0  0  0  0
   16.2226   47.7408  -53.3204 O   0  0  0  0  0  0  0  0  0  0  0  0
   16.5018   48.9638  -55.5545 C   0  0  0  0  0  0  0  0  0  0  0  0
   16.9065   48.8901  -56.9270 O   0  0  0  0  0  0  0  0  0  0  0  0
   15.7537   49.3001  -58.0348 P   0  0  0  0  0  0  0  0  0  0  0  0
   16.4592   49.2146  -59.3850 O   0  0  0  0  0  0  0  0  0  0  0  0
   14.6887   48.2395  -57.8103 O   0  0  0  0  0  0  0  0  0  0  0  0
   15.3262   50.7034  -57.6296 O   0  0  0  0  0  0  0  0  0  0  0  0
   13.3072   43.7444  -50.3812 H   0  0  0  0  0  0  0  0  0  0  0  0
   12.1947   47.7554  -49.9765 H   0  0  0  0  0  0  0  0  0  0  0  0
   13.9476   48.3300  -51.6843 H   0  0  0  0  0  0  0  0  0  0  0  0
   16.2360   45.7386  -52.9992 H   0  0  0  0  0  0  0  0  0  0  0  0
   14.0576   47.2166  -54.6023 H   0  0  0  0  0  0  0  0  0  0  0  0
   14.1972   45.4309  -54.5278 H   0  0  0  0  0  0  0  0  0  0  0  0
   15.6761   46.5838  -56.4351 H   0  0  0  0  0  0  0  0  0  0  0  0
   17.7862   47.4015  -54.7467 H   0  0  0  0  0  0  0  0  0  0  0  0
   16.0839   44.5576  -55.6499 H   0  0  0  0  0  0  0  0  0  0  0  0
   17.0984   49.7582  -55.0947 H   0  0  0  0  0  0  0  0  0  0  0  0
   15.4560   49.2666  -55.4768 H   0  0  0  0  0  0  0  0  0  0  0  0
  1  2  1  0  0  0  0
  1  6  1  0  0  0  0
  1  9  1  0  0  0  0
  2  3  1  0  0  0  0
  2  7  2  0  0  0  0
  3  4  1  0  0  0  0
  3 21  1  0  0  0  0
  4  5  1  0  0  0  0
  4  8  2  0  0  0  0
  5  6  2  0  0  0  0
  5 22  1  0  0  0  0
  6 23  1  0  0  0  0
  9 10  1  0  0  0  0
  9 14  1  0  0  0  0
  9 24  1  1  0  0  0
 10 11  1  0  0  0  0
 10 25  1  0  0  0  0
 10 26  1  0  0  0  0
 11 12  1  0  0  0  0
 11 13  1  0  0  0  0
 11 27  1  6  0  0  0
 12 14  1  0  0  0  0
 12 15  1  0  0  0  0
 12 28  1  1  0  0  0
 13 29  1  0  0  0  0
 15 16  1  0  0  0  0
 15 30  1  0  0  0  0
 15 31  1  0  0  0  0
 16 17  1  0  0  0  0
 17 18  2  0  0  0  0
 17 19  1  0  0  0  0
 17 20  1  0  0  0  0
M  CHG  2   1   1   3   1
M  END
$$$$
