UMP
 OpenBabel04041915553D

 31 32  0  0  1  0  0  0  0  0999 V2000
   14.3589   48.9299  -53.7855 N   0  3  0  0  0  0  0  0  0  0  0  0
   13.7127   47.7688  -53.3130 C   0  0  0  0  0  0  0  0  0  0  0  0
   13.1877   47.8028  -52.0539 N   0  3  0  0  0  0  0  0  0  0  0  0
   13.2019   48.8723  -51.2084 C   0  0  0  0  0  0  0  0  0  0  0  0
   13.8324   50.0945  -51.7984 C   0  0  0  0  0  0  0  0  0  0  0  0
   14.3550   50.0694  -52.9989 C   0  0  0  0  0  0  0  0  0  0  0  0
   13.5864   46.7078  -53.9400 O   0  0  0  0  0  0  0  0  0  0  0  0
   12.7478   48.7995  -50.0804 O   0  0  0  0  0  0  0  0  0  0  0  0
   15.3335   48.8255  -54.9043 C   0  0  1  0  0  0  0  0  0  0  0  0
   14.8994   48.3339  -56.2616 C   0  0  0  0  0  0  0  0  0  0  0  0
   16.2291   48.4494  -56.9875 C   0  0  1  0  0  0  0  0  0  0  0  0
   16.7526   49.8300  -56.5893 C   0  0  2  0  0  0  0  0  0  0  0  0
   17.0949   47.4249  -56.4338 O   0  0  0  0  0  0  0  0  0  0  0  0
   16.2530   49.9617  -55.1681 O   0  0  0  0  0  0  0  0  0  0  0  0
   16.1305   50.9470  -57.4799 C   0  0  0  0  0  0  0  0  0  0  0  0
   16.5341   50.8952  -58.8403 O   0  0  0  0  0  0  0  0  0  0  0  0
   15.7537   51.8411  -59.9830 P   0  0  0  0  0  0  0  0  0  0  0  0
   14.6479   50.9111  -60.4801 O   0  0  0  0  0  0  0  0  0  0  0  0
   15.1993   53.0894  -59.2925 O   0  0  0  0  0  0  0  0  0  0  0  0
   16.8164   52.1583  -61.0170 O   0  0  0  0  0  0  0  0  0  0  0  0
   12.7521   46.9573  -51.7071 H   0  0  0  0  0  0  0  0  0  0  0  0
   13.8586   50.9964  -51.1852 H   0  0  0  0  0  0  0  0  0  0  0  0
   14.8424   50.9365  -53.4731 H   0  0  0  0  0  0  0  0  0  0  0  0
   15.9702   48.0498  -54.4819 H   0  0  0  0  0  0  0  0  0  0  0  0
   14.1334   48.9660  -56.7169 H   0  0  0  0  0  0  0  0  0  0  0  0
   14.5525   47.3034  -56.2181 H   0  0  0  0  0  0  0  0  0  0  0  0
   16.1473   48.3258  -58.0660 H   0  0  0  0  0  0  0  0  0  0  0  0
   17.8658   49.8887  -56.6558 H   0  0  0  0  0  0  0  0  0  0  0  0
   16.7028   46.5678  -56.6568 H   0  0  0  0  0  0  0  0  0  0  0  0
   16.4378   51.9140  -57.0788 H   0  0  0  0  0  0  0  0  0  0  0  0
   15.0509   50.8547  -57.3987 H   0  0  0  0  0  0  0  0  0  0  0  0
  1  2  1  0  0  0  0
  1  6  1  0  0  0  0
  1  9  1  0  0  0  0
  2  3  1  0  0  0  0
  2  7  2  0  0  0  0
  3  4  1  0  0  0  0
  3 21  1  0  0  0  0
  4  5  1  0  0  0  0
  4  8  2  0  0  0  0
  5  6  2  0  0  0  0
  5 22  1  0  0  0  0
  6 23  1  0  0  0  0
  9 10  1  0  0  0  0
  9 14  1  0  0  0  0
  9 24  1  1  0  0  0
 10 11  1  0  0  0  0
 10 25  1  0  0  0  0
 10 26  1  0  0  0  0
 11 12  1  0  0  0  0
 11 13  1  0  0  0  0
 11 27  1  6  0  0  0
 12 14  1  0  0  0  0
 12 15  1  0  0  0  0
 12 28  1  6  0  0  0
 13 29  1  0  0  0  0
 15 16  1  0  0  0  0
 15 30  1  0  0  0  0
 15 31  1  0  0  0  0
 16 17  1  0  0  0  0
 17 18  2  0  0  0  0
 17 19  1  0  0  0  0
 17 20  1  0  0  0  0
M  CHG  2   1   1   3   1
M  END
$$$$
