UP6
 OpenBabel04041915203D

 31 32  0  0  1  0  0  0  0  0999 V2000
   41.8326   40.0578   37.4944 N   0  3  0  0  0  0  0  0  0  0  0  0
   42.7329   39.2768   36.8485 C   0  0  0  0  0  0  0  0  0  0  0  0
   44.0598   39.5497   36.9762 N   0  3  0  0  0  0  0  0  0  0  0  0
   44.5460   40.5393   37.7708 C   0  0  0  0  0  0  0  0  0  0  0  0
   43.4769   41.3306   38.4640 C   0  0  0  0  0  0  0  0  0  0  0  0
   42.2183   41.0983   38.3323 N   0  0  0  0  0  0  0  0  0  0  0  0
   42.4581   38.3522   36.0707 O   0  0  0  0  0  0  0  0  0  0  0  0
   45.7197   40.8034   37.9363 O   0  0  0  0  0  0  0  0  0  0  0  0
   40.3907   39.7827   37.4209 C   0  0  1  0  0  0  0  0  0  0  0  0
   39.7209   39.8040   36.0423 C   0  0  1  0  0  0  0  0  0  0  0  0
   38.5560   38.8395   36.2482 C   0  0  1  0  0  0  0  0  0  0  0  0
   39.1159   37.8310   37.2591 C   0  0  2  0  0  0  0  0  0  0  0  0
   39.3092   41.1336   35.6669 O   0  0  0  0  0  0  0  0  0  0  0  0
   37.4410   39.5695   36.8396 O   0  0  0  0  0  0  0  0  0  0  0  0
   40.0902   38.5411   38.0696 O   0  0  0  0  0  0  0  0  0  0  0  0
   39.7470   36.5549   36.6787 C   0  0  0  0  0  0  0  0  0  0  0  0
   38.8252   35.9407   35.8071 O   0  0  0  0  0  0  0  0  0  0  0  0
   39.1594   34.5351   35.0300 P   0  0  0  0  0  0  0  0  0  0  0  0
   40.4574   34.7643   34.2726 O   0  0  0  0  0  0  0  0  0  0  0  0
   37.9385   34.3956   34.1349 O   0  0  0  0  0  0  0  0  0  0  0  0
   39.2398   33.4890   36.1335 O   0  0  0  0  0  0  0  0  0  0  0  0
   44.7220   38.9824   36.4917 H   0  0  0  0  0  0  0  0  0  0  0  0
   43.8312   42.1591   39.1084 H   0  0  0  0  0  0  0  0  0  0  0  0
   39.9287   40.5750   38.0201 H   0  0  0  0  0  0  0  0  0  0  0  0
   40.3747   39.4214   35.2585 H   0  0  0  0  0  0  0  0  0  0  0  0
   38.2213   38.3771   35.3166 H   0  0  0  0  0  0  0  0  0  0  0  0
   38.2938   37.5273   37.9164 H   0  0  0  0  0  0  0  0  0  0  0  0
   38.7172   41.4469   36.3797 H   0  0  0  0  0  0  0  0  0  0  0  0
   36.7562   38.8963   37.0371 H   0  0  0  0  0  0  0  0  0  0  0  0
   39.9916   35.9011   37.5242 H   0  0  0  0  0  0  0  0  0  0  0  0
   40.6695   36.7981   36.1567 H   0  0  0  0  0  0  0  0  0  0  0  0
  1  2  1  0  0  0  0
  1  6  1  0  0  0  0
  1  9  1  0  0  0  0
  2  3  1  0  0  0  0
  2  7  2  0  0  0  0
  3  4  1  0  0  0  0
  3 22  1  0  0  0  0
  4  5  1  0  0  0  0
  4  8  2  0  0  0  0
  5  6  2  0  0  0  0
  5 23  1  0  0  0  0
  9 10  1  0  0  0  0
  9 15  1  0  0  0  0
  9 24  1  1  0  0  0
 10 11  1  0  0  0  0
 10 13  1  0  0  0  0
 10 25  1  6  0  0  0
 11 12  1  0  0  0  0
 11 14  1  0  0  0  0
 11 26  1  6  0  0  0
 12 15  1  0  0  0  0
 12 16  1  0  0  0  0
 12 27  1  1  0  0  0
 13 28  1  0  0  0  0
 14 29  1  0  0  0  0
 16 17  1  0  0  0  0
 16 30  1  0  0  0  0
 16 31  1  0  0  0  0
 17 18  1  0  0  0  0
 18 19  2  0  0  0  0
 18 20  1  0  0  0  0
 18 21  1  0  0  0  0
M  CHG  2   1   1   3   1
M  END
$$$$
