VDN
 OpenBabel04041917063D

 68 71  0  0  1  0  0  0  0  0999 V2000
    5.6839   65.4739   86.9884 C   0  0  0  0  0  0  0  0  0  0  0  0
    5.6120   66.6335   86.0051 C   0  0  0  0  0  0  0  0  0  0  0  0
    4.2815   66.6112   85.4875 O   0  0  0  0  0  0  0  0  0  0  0  0
    3.8687   67.5341   84.5743 C   0  0  0  0  0  0  0  0  0  0  0  0
    4.6405   68.5822   84.0518 C   0  0  0  0  0  0  0  0  0  0  0  0
    4.0999   69.4613   83.0841 C   0  0  0  0  0  0  0  0  0  0  0  0
    2.7864   69.2913   82.6504 C   0  0  0  0  0  0  0  0  0  0  0  0
    2.0157   68.2427   83.1571 C   0  0  0  0  0  0  0  0  0  0  0  0
    2.5531   67.3654   84.1145 C   0  0  0  0  0  0  0  0  0  0  0  0
    2.0791   70.2752   81.3395 S   0  0  0  0  0  0  0  0  0  0  0  0
    2.8299   69.9403   80.1513 O   0  0  0  0  0  0  0  0  0  0  0  0
    0.6479   70.1043   81.4087 O   0  0  0  0  0  0  0  0  0  0  0  0
    2.4860   77.1362   80.3424 C   0  0  0  0  0  0  0  0  0  0  0  0
    2.4166   71.9247   81.7467 N   0  0  0  0  0  0  0  0  0  0  0  0
    1.1739   72.6917   82.1223 C   0  0  0  0  0  0  0  0  0  0  0  0
    1.4753   74.1630   82.4632 C   0  0  0  0  0  0  0  0  0  0  0  0
    2.2095   74.8524   81.3167 N   0  3  2  0  0  0  0  0  0  0  0  0
    3.4939   74.0946   80.9965 C   0  0  0  0  0  0  0  0  0  0  0  0
    3.2020   72.6210   80.6627 C   0  0  0  0  0  0  0  0  0  0  0  0
    2.4611   76.3190   81.6209 C   0  0  0  0  0  0  0  0  0  0  0  0
    1.6966   66.2166   84.5225 C   0  0  1  0  0  0  0  0  0  0  0  0
    1.6044   65.9501   85.8886 N   0  3  0  0  0  0  0  0  0  0  0  0
    0.8196   64.9683   86.4813 C   0  0  0  0  0  0  0  0  0  0  0  0
    0.1293   64.2445   85.4674 C   0  0  2  0  0  0  0  0  0  0  0  0
    0.2736   64.5565   84.1253 N   0  3  2  0  0  0  0  0  0  0  0  0
    1.0621   65.5697   83.5863 N   0  0  0  0  0  0  0  0  0  0  0  0
    0.7886   64.8412   87.7012 O   0  0  0  0  0  0  0  0  0  0  0  0
   -0.7608   63.1917   85.5288 C   0  0  2  0  0  0  0  0  0  0  0  0
   -1.0974   62.9120   84.2018 N   0  3  0  0  0  0  0  0  0  0  0  0
   -0.4671   63.7434   83.3547 C   0  0  1  0  0  0  0  0  0  0  0  0
   -1.3284   62.4254   86.6530 C   0  0  0  0  0  0  0  0  0  0  0  0
   -0.5629   63.7860   81.8613 C   0  0  0  0  0  0  0  0  0  0  0  0
    0.5472   63.0449   81.1296 C   0  0  0  0  0  0  0  0  0  0  0  0
    0.2062   61.5774   80.9308 C   0  0  0  0  0  0  0  0  0  0  0  0
    6.6618   65.4066   87.4716 H   0  0  0  0  0  0  0  0  0  0  0  0
    5.4760   64.5270   86.4767 H   0  0  0  0  0  0  0  0  0  0  0  0
    4.9132   65.5819   87.7606 H   0  0  0  0  0  0  0  0  0  0  0  0
    6.3468   66.4877   85.2053 H   0  0  0  0  0  0  0  0  0  0  0  0
    5.8056   67.5751   86.5303 H   0  0  0  0  0  0  0  0  0  0  0  0
    5.6767   68.7227   84.3514 H   0  0  0  0  0  0  0  0  0  0  0  0
    4.7313   70.2395   82.6578 H   0  0  0  0  0  0  0  0  0  0  0  0
    1.0081   68.0766   82.7796 H   0  0  0  0  0  0  0  0  0  0  0  0
    2.6711   78.1892   80.5815 H   0  0  0  0  0  0  0  0  0  0  0  0
    1.5253   77.0803   79.8196 H   0  0  0  0  0  0  0  0  0  0  0  0
    3.2714   76.8062   79.6570 H   0  0  0  0  0  0  0  0  0  0  0  0
    0.7071   72.2246   82.9946 H   0  0  0  0  0  0  0  0  0  0  0  0
    0.4660   72.6698   81.2835 H   0  0  0  0  0  0  0  0  0  0  0  0
    2.1131   74.2476   83.3491 H   0  0  0  0  0  0  0  0  0  0  0  0
    0.5411   74.7125   82.6223 H   0  0  0  0  0  0  0  0  0  0  0  0
    4.1403   74.1745   81.8776 H   0  0  0  0  0  0  0  0  0  0  0  0
    3.9664   74.5923   80.1444 H   0  0  0  0  0  0  0  0  0  0  0  0
    2.6425   72.5723   79.7208 H   0  0  0  0  0  0  0  0  0  0  0  0
    4.1621   72.1090   80.5369 H   0  0  0  0  0  0  0  0  0  0  0  0
    1.6458   76.6719   82.2606 H   0  0  0  0  0  0  0  0  0  0  0  0
    3.4035   76.3935   82.1729 H   0  0  0  0  0  0  0  0  0  0  0  0
    2.1645   66.4929   86.5357 H   0  0  0  0  0  0  0  0  0  0  0  0
   -1.7342   62.1744   83.9038 H   0  0  0  0  0  0  0  0  0  0  0  0
   -0.9589   62.7908   87.6130 H   0  0  0  0  0  0  0  0  0  0  0  0
   -1.0602   61.3695   86.5487 H   0  0  0  0  0  0  0  0  0  0  0  0
   -2.4195   62.5132   86.6393 H   0  0  0  0  0  0  0  0  0  0  0  0
   -0.5244   64.8536   81.6123 H   0  0  0  0  0  0  0  0  0  0  0  0
   -1.5592   63.4186   81.6012 H   0  0  0  0  0  0  0  0  0  0  0  0
    1.4916   63.1280   81.6810 H   0  0  0  0  0  0  0  0  0  0  0  0
    0.7015   63.5024   80.1465 H   0  0  0  0  0  0  0  0  0  0  0  0
    1.0171   61.0693   80.3991 H   0  0  0  0  0  0  0  0  0  0  0  0
   -0.7051   61.4722   80.3333 H   0  0  0  0  0  0  0  0  0  0  0  0
    0.0521   61.0711   81.8882 H   0  0  0  0  0  0  0  0  0  0  0  0
    1.5963   74.8063   80.4898 H   0  0  0  0  0  0  0  0  0  0  0  0
  1  2  1  0  0  0  0
  1 35  1  0  0  0  0
  1 36  1  0  0  0  0
  1 37  1  0  0  0  0
  2  3  1  0  0  0  0
  2 38  1  0  0  0  0
  2 39  1  0  0  0  0
  3  4  1  0  0  0  0
  4  5  2  0  0  0  0
  4  9  1  0  0  0  0
  5  6  1  0  0  0  0
  5 40  1  0  0  0  0
  6  7  2  0  0  0  0
  6 41  1  0  0  0  0
  7  8  1  0  0  0  0
  7 10  1  0  0  0  0
  8  9  2  0  0  0  0
  8 42  1  0  0  0  0
 10 11  2  0  0  0  0
 10 12  2  0  0  0  0
 10 14  1  0  0  0  0
 13 20  1  0  0  0  0
 13 43  1  0  0  0  0
 13 44  1  0  0  0  0
 13 45  1  0  0  0  0
 14 15  1  0  0  0  0
 14 19  1  0  0  0  0
 15 16  1  0  0  0  0
 15 46  1  0  0  0  0
 15 47  1  0  0  0  0
 16 17  1  0  0  0  0
 16 48  1  0  0  0  0
 16 49  1  0  0  0  0
 17 18  1  0  0  0  0
 17 20  1  0  0  0  0
 17 68  1  6  0  0  0
 18 19  1  0  0  0  0
 18 50  1  0  0  0  0
 18 51  1  0  0  0  0
 19 52  1  0  0  0  0
 19 53  1  0  0  0  0
 20 54  1  0  0  0  0
 20 55  1  0  0  0  0
 21  9  1  1  0  0  0
 21 22  1  0  0  0  0
 21 26  1  0  0  0  0
 22 23  1  0  0  0  0
 22 56  1  0  0  0  0
 23 27  2  0  0  0  0
 24 23  1  1  0  0  0
 24 25  1  0  0  0  0
 24 28  1  0  0  0  0
 25 26  1  1  0  0  0
 25 30  1  0  0  0  0
 28 29  1  0  0  0  0
 28 31  1  1  0  0  0
 29 30  1  0  0  0  0
 29 57  1  0  0  0  0
 30 32  1  1  0  0  0
 31 58  1  0  0  0  0
 31 59  1  0  0  0  0
 31 60  1  0  0  0  0
 32 33  1  0  0  0  0
 32 61  1  0  0  0  0
 32 62  1  0  0  0  0
 33 34  1  0  0  0  0
 33 63  1  0  0  0  0
 33 64  1  0  0  0  0
 34 65  1  0  0  0  0
 34 66  1  0  0  0  0
 34 67  1  0  0  0  0
M  CHG  4  17   1  22   1  25   1  29   1
M  END
$$$$
