VDX
 OpenBabel04041915043D

 74 76  0  0  1  0  0  0  0  0999 V2000
   16.9941   17.5206   34.6328 O   0  0  0  0  0  0  0  0  0  0  0  0
    4.6111   26.3168   34.8520 O   0  0  0  0  0  0  0  0  0  0  0  0
   14.2017   17.4209   35.5469 C   0  0  1  0  0  0  0  0  0  0  0  0
   14.8778   16.3468   34.6777 C   0  0  0  0  0  0  0  0  0  0  0  0
   15.9517   17.0032   33.8100 C   0  0  1  0  0  0  0  0  0  0  0  0
   15.3603   18.1658   32.9972 C   0  0  0  0  0  0  0  0  0  0  0  0
   14.5415   19.1719   33.7849 C   0  0  0  0  0  0  0  0  0  0  0  0
   14.6944   20.4813   33.5037 C   0  0  0  0  0  0  0  0  0  0  0  0
   14.1135   21.6319   34.1648 C   0  0  0  0  0  0  0  0  0  0  0  0
   13.8802   22.8542   33.6728 C   0  0  0  0  0  0  0  0  0  0  0  0
   14.1811   23.2963   32.2682 C   0  0  0  0  0  0  0  0  0  0  0  0
   13.5890   18.5742   34.7441 C   0  0  0  0  0  0  0  0  0  0  0  0
   12.8715   23.6863   31.5715 C   0  0  0  0  0  0  0  0  0  0  0  0
   12.0167   24.6662   32.4060 C   0  0  0  0  0  0  0  0  0  0  0  0
   11.7726   24.1857   33.8518 C   0  0  1  0  0  0  0  0  0  0  0  0
   13.1756   23.9126   34.4607 C   0  0  1  0  0  0  0  0  0  0  0  0
   12.9286   23.7713   35.9546 C   0  0  0  0  0  0  0  0  0  0  0  0
   11.7763   24.7433   36.2080 C   0  0  0  0  0  0  0  0  0  0  0  0
   11.2516   25.2686   34.8348 C   0  0  2  0  0  0  0  0  0  0  0  0
   10.8620   22.9346   33.8853 C   0  0  0  0  0  0  0  0  0  0  0  0
   12.3257   18.9551   34.8331 C   0  0  0  0  0  0  0  0  0  0  0  0
    9.7159   25.5153   34.9390 C   0  0  1  0  0  0  0  0  0  0  0  0
    9.4338   26.5074   36.0815 C   0  0  0  0  0  0  0  0  0  0  0  0
    9.0238   25.8998   33.6322 C   0  0  0  0  0  0  0  0  0  0  0  0
    7.4879   26.1202   33.7862 C   0  0  0  0  0  0  0  0  0  0  0  0
    6.5878   24.9491   34.2088 C   0  0  0  0  0  0  0  0  0  0  0  0
    5.0560   25.2062   34.0833 C   0  0  0  0  0  0  0  0  0  0  0  0
    4.6489   25.4149   32.6274 C   0  0  0  0  0  0  0  0  0  0  0  0
    4.2595   24.0404   34.6604 C   0  0  0  0  0  0  0  0  0  0  0  0
   13.2455   16.8343   36.4215 O   0  0  0  0  0  0  0  0  0  0  0  0
   17.3652   16.7790   35.1629 H   0  0  0  0  0  0  0  0  0  0  0  0
    5.0660   27.0965   34.5399 H   0  0  0  0  0  0  0  0  0  0  0  0
   14.9785   17.8401   36.1941 H   0  0  0  0  0  0  0  0  0  0  0  0
   14.1455   15.8297   34.0439 H   0  0  0  0  0  0  0  0  0  0  0  0
   15.3357   15.5857   35.3256 H   0  0  0  0  0  0  0  0  0  0  0  0
   16.4064   16.2746   33.1217 H   0  0  0  0  0  0  0  0  0  0  0  0
   14.7116   17.7384   32.2209 H   0  0  0  0  0  0  0  0  0  0  0  0
   16.1906   18.6898   32.5053 H   0  0  0  0  0  0  0  0  0  0  0  0
   15.3556   20.7161   32.6685 H   0  0  0  0  0  0  0  0  0  0  0  0
   13.8253   21.4379   35.2042 H   0  0  0  0  0  0  0  0  0  0  0  0
   14.6879   22.5155   31.7117 H   0  0  0  0  0  0  0  0  0  0  0  0
   14.8530   24.1631   32.3051 H   0  0  0  0  0  0  0  0  0  0  0  0
   12.2953   22.7749   31.3735 H   0  0  0  0  0  0  0  0  0  0  0  0
   13.1029   24.1356   30.5980 H   0  0  0  0  0  0  0  0  0  0  0  0
   11.0716   24.8304   31.8850 H   0  0  0  0  0  0  0  0  0  0  0  0
   12.5526   25.6234   32.4429 H   0  0  0  0  0  0  0  0  0  0  0  0
   13.7809   24.8295   34.3637 H   0  0  0  0  0  0  0  0  0  0  0  0
   13.8189   24.0335   36.5422 H   0  0  0  0  0  0  0  0  0  0  0  0
   12.6503   22.7506   36.2459 H   0  0  0  0  0  0  0  0  0  0  0  0
   12.1134   25.5780   36.8235 H   0  0  0  0  0  0  0  0  0  0  0  0
   10.9755   24.2110   36.7329 H   0  0  0  0  0  0  0  0  0  0  0  0
   11.7406   26.2269   34.5985 H   0  0  0  0  0  0  0  0  0  0  0  0
   11.2110   22.1673   33.1937 H   0  0  0  0  0  0  0  0  0  0  0  0
    9.8287   23.1597   33.6058 H   0  0  0  0  0  0  0  0  0  0  0  0
   10.8302   22.4827   34.8824 H   0  0  0  0  0  0  0  0  0  0  0  0
   11.9337   19.7978   34.2570 H   0  0  0  0  0  0  0  0  0  0  0  0
   11.6074   18.4479   35.4829 H   0  0  0  0  0  0  0  0  0  0  0  0
    9.2603   24.5671   35.2267 H   0  0  0  0  0  0  0  0  0  0  0  0
    8.3701   26.7055   36.1975 H   0  0  0  0  0  0  0  0  0  0  0  0
    9.9468   27.4619   35.9352 H   0  0  0  0  0  0  0  0  0  0  0  0
    9.7587   26.0899   37.0378 H   0  0  0  0  0  0  0  0  0  0  0  0
    9.2019   25.1201   32.8851 H   0  0  0  0  0  0  0  0  0  0  0  0
    9.4824   26.8179   33.2354 H   0  0  0  0  0  0  0  0  0  0  0  0
    7.1288   26.4983   32.8338 H   0  0  0  0  0  0  0  0  0  0  0  0
    7.3468   26.9054   34.5301 H   0  0  0  0  0  0  0  0  0  0  0  0
    6.7890   24.7140   35.2615 H   0  0  0  0  0  0  0  0  0  0  0  0
    6.8360   24.0761   33.5932 H   0  0  0  0  0  0  0  0  0  0  0  0
    4.9822   24.5721   32.0130 H   0  0  0  0  0  0  0  0  0  0  0  0
    5.0821   26.3387   32.2327 H   0  0  0  0  0  0  0  0  0  0  0  0
    3.5603   25.5070   32.5404 H   0  0  0  0  0  0  0  0  0  0  0  0
    4.4988   23.1088   34.1462 H   0  0  0  0  0  0  0  0  0  0  0  0
    3.1830   24.2345   34.5694 H   0  0  0  0  0  0  0  0  0  0  0  0
    4.4811   23.9427   35.7242 H   0  0  0  0  0  0  0  0  0  0  0  0
   12.4758   16.5502   35.8839 H   0  0  0  0  0  0  0  0  0  0  0  0
  1  5  1  0  0  0  0
  1 31  1  0  0  0  0
  2 27  1  0  0  0  0
  2 32  1  0  0  0  0
  3  4  1  0  0  0  0
  3 12  1  0  0  0  0
  3 30  1  0  0  0  0
  3 33  1  1  0  0  0
  4  5  1  0  0  0  0
  4 34  1  0  0  0  0
  4 35  1  0  0  0  0
  5  6  1  0  0  0  0
  5 36  1  6  0  0  0
  6  7  1  0  0  0  0
  6 37  1  0  0  0  0
  6 38  1  0  0  0  0
  7  8  2  0  0  0  0
  7 12  1  0  0  0  0
  8  9  1  0  0  0  0
  8 39  1  0  0  0  0
  9 10  2  0  0  0  0
  9 40  1  0  0  0  0
 10 11  1  0  0  0  0
 10 16  1  0  0  0  0
 11 13  1  0  0  0  0
 11 41  1  0  0  0  0
 11 42  1  0  0  0  0
 12 21  2  0  0  0  0
 13 14  1  0  0  0  0
 13 43  1  0  0  0  0
 13 44  1  0  0  0  0
 14 15  1  0  0  0  0
 14 45  1  0  0  0  0
 14 46  1  0  0  0  0
 15 16  1  0  0  0  0
 15 19  1  0  0  0  0
 15 20  1  1  0  0  0
 16 17  1  0  0  0  0
 16 47  1  6  0  0  0
 17 18  1  0  0  0  0
 17 48  1  0  0  0  0
 17 49  1  0  0  0  0
 18 19  1  0  0  0  0
 18 50  1  0  0  0  0
 18 51  1  0  0  0  0
 19 22  1  0  0  0  0
 19 52  1  6  0  0  0
 20 53  1  0  0  0  0
 20 54  1  0  0  0  0
 20 55  1  0  0  0  0
 21 56  1  0  0  0  0
 21 57  1  0  0  0  0
 22 23  1  0  0  0  0
 22 24  1  0  0  0  0
 22 58  1  1  0  0  0
 23 59  1  0  0  0  0
 23 60  1  0  0  0  0
 23 61  1  0  0  0  0
 24 25  1  0  0  0  0
 24 62  1  0  0  0  0
 24 63  1  0  0  0  0
 25 26  1  0  0  0  0
 25 64  1  0  0  0  0
 25 65  1  0  0  0  0
 26 27  1  0  0  0  0
 26 66  1  0  0  0  0
 26 67  1  0  0  0  0
 27 28  1  0  0  0  0
 27 29  1  0  0  0  0
 28 68  1  0  0  0  0
 28 69  1  0  0  0  0
 28 70  1  0  0  0  0
 29 71  1  0  0  0  0
 29 72  1  0  0  0  0
 29 73  1  0  0  0  0
 30 74  1  0  0  0  0
M  END
$$$$
