VIT
 OpenBabel04041915223D

 77 78  0  0  1  0  0  0  0  0999 V2000
    6.5287   15.6034   39.1070 C   0  0  0  0  0  0  0  0  0  0  0  0
   15.5846   22.8657   46.5529 C   0  0  0  0  0  0  0  0  0  0  0  0
   15.1618   22.7134   45.1925 C   0  0  0  0  0  0  0  0  0  0  0  0
   16.0630   22.2539   44.2359 C   0  0  0  0  0  0  0  0  0  0  0  0
   17.4006   21.9314   44.6389 C   0  0  0  0  0  0  0  0  0  0  0  0
   17.8424   22.1112   45.9919 C   0  0  0  0  0  0  0  0  0  0  0  0
   16.9198   22.5732   46.9264 C   0  0  0  0  0  0  0  0  0  0  0  0
   14.6499   23.3418   47.6519 C   0  0  0  0  0  0  0  0  0  0  0  0
   15.7132   22.0565   42.9136 O   0  0  0  0  0  0  0  0  0  0  0  0
   14.3997   22.4406   42.3313 C   0  0  1  0  0  0  0  0  0  0  0  0
   13.7315   22.8893   44.8134 C   0  0  0  0  0  0  0  0  0  0  0  0
   13.5496   23.2647   43.3628 C   0  0  0  0  0  0  0  0  0  0  0  0
   18.3850   21.3650   43.6424 C   0  0  0  0  0  0  0  0  0  0  0  0
   19.2667   21.7676   46.3609 C   0  0  0  0  0  0  0  0  0  0  0  0
   17.2195   22.7751   48.2510 O   0  0  0  0  0  0  0  0  0  0  0  0
   14.7499   23.4707   41.2290 C   0  0  0  0  0  0  0  0  0  0  0  0
   13.6057   21.0369   41.9117 C   0  0  0  0  0  0  0  0  0  0  0  0
   12.5502   20.0673   41.0665 C   0  0  0  0  0  0  0  0  0  0  0  0
   12.6162   19.2892   39.6901 C   0  0  0  0  0  0  0  0  0  0  0  0
   11.2946   18.9952   38.7464 C   0  0  2  0  0  0  0  0  0  0  0  0
   10.1049   19.9569   38.7900 C   0  0  0  0  0  0  0  0  0  0  0  0
   10.8368   17.4502   38.6959 C   0  0  0  0  0  0  0  0  0  0  0  0
    9.3587   16.9885   38.6341 C   0  0  0  0  0  0  0  0  0  0  0  0
    8.9284   15.8144   38.0980 C   0  0  0  0  0  0  0  0  0  0  0  0
    7.4627   15.3250   37.9242 C   0  0  1  0  0  0  0  0  0  0  0  0
    7.3426   13.8184   37.5794 C   0  0  0  0  0  0  0  0  0  0  0  0
    6.1799   13.2362   37.3389 C   0  0  0  0  0  0  0  0  0  0  0  0
    5.9852   11.7733   37.1679 C   0  0  0  0  0  0  0  0  0  0  0  0
    4.5161   11.2922   36.9447 C   0  0  0  0  0  0  0  0  0  0  0  0
    3.8557   11.9380   35.7216 C   0  0  0  0  0  0  0  0  0  0  0  0
    4.4653    9.7695   36.8036 C   0  0  0  0  0  0  0  0  0  0  0  0
    5.4884   15.3678   38.8450 H   0  0  0  0  0  0  0  0  0  0  0  0
    6.5318   16.6508   39.4103 H   0  0  0  0  0  0  0  0  0  0  0  0
    6.7813   14.9782   39.9725 H   0  0  0  0  0  0  0  0  0  0  0  0
   13.6120   23.5083   47.3283 H   0  0  0  0  0  0  0  0  0  0  0  0
   15.0170   24.3072   48.0485 H   0  0  0  0  0  0  0  0  0  0  0  0
   14.6041   22.6093   48.4705 H   0  0  0  0  0  0  0  0  0  0  0  0
   13.2785   23.7098   45.3856 H   0  0  0  0  0  0  0  0  0  0  0  0
   13.1904   21.9686   45.0533 H   0  0  0  0  0  0  0  0  0  0  0  0
   12.4800   23.2175   43.1243 H   0  0  0  0  0  0  0  0  0  0  0  0
   13.7797   24.3372   43.2890 H   0  0  0  0  0  0  0  0  0  0  0  0
   17.9355   21.1450   42.6708 H   0  0  0  0  0  0  0  0  0  0  0  0
   18.7942   20.4188   44.0179 H   0  0  0  0  0  0  0  0  0  0  0  0
   19.2083   22.0687   43.4881 H   0  0  0  0  0  0  0  0  0  0  0  0
   19.5286   21.9731   47.4015 H   0  0  0  0  0  0  0  0  0  0  0  0
   19.9650   22.3526   45.7598 H   0  0  0  0  0  0  0  0  0  0  0  0
   19.4645   20.6999   46.2068 H   0  0  0  0  0  0  0  0  0  0  0  0
   18.1393   22.5606   48.4395 H   0  0  0  0  0  0  0  0  0  0  0  0
   15.5784   23.1655   40.5832 H   0  0  0  0  0  0  0  0  0  0  0  0
   15.1262   24.3974   41.6980 H   0  0  0  0  0  0  0  0  0  0  0  0
   13.8803   23.7640   40.6357 H   0  0  0  0  0  0  0  0  0  0  0  0
   13.8860   20.3967   42.7588 H   0  0  0  0  0  0  0  0  0  0  0  0
   12.6857   21.5556   42.1902 H   0  0  0  0  0  0  0  0  0  0  0  0
   12.6096   19.1919   41.7454 H   0  0  0  0  0  0  0  0  0  0  0  0
   11.5154   20.3884   41.2434 H   0  0  0  0  0  0  0  0  0  0  0  0
   13.4174   19.6914   39.0617 H   0  0  0  0  0  0  0  0  0  0  0  0
   12.9575   18.2736   39.9453 H   0  0  0  0  0  0  0  0  0  0  0  0
   11.7057   19.1644   37.7357 H   0  0  0  0  0  0  0  0  0  0  0  0
    9.4941   19.8235   37.8794 H   0  0  0  0  0  0  0  0  0  0  0  0
   10.4109   21.0062   38.7947 H   0  0  0  0  0  0  0  0  0  0  0  0
    9.4460   19.7708   39.6410 H   0  0  0  0  0  0  0  0  0  0  0  0
   11.3200   17.0326   37.7983 H   0  0  0  0  0  0  0  0  0  0  0  0
   11.2793   16.9401   39.5535 H   0  0  0  0  0  0  0  0  0  0  0  0
    8.6200   17.6533   39.0745 H   0  0  0  0  0  0  0  0  0  0  0  0
    9.6823   15.1531   37.6731 H   0  0  0  0  0  0  0  0  0  0  0  0
    7.0946   15.8684   37.0439 H   0  0  0  0  0  0  0  0  0  0  0  0
    8.2326   13.2327   37.5923 H   0  0  0  0  0  0  0  0  0  0  0  0
    5.2885   13.8253   37.3432 H   0  0  0  0  0  0  0  0  0  0  0  0
    6.3707   11.2419   38.0364 H   0  0  0  0  0  0  0  0  0  0  0  0
    6.5840   11.4144   36.2867 H   0  0  0  0  0  0  0  0  0  0  0  0
    3.9315   11.5706   37.8333 H   0  0  0  0  0  0  0  0  0  0  0  0
    2.8378   11.5567   35.5830 H   0  0  0  0  0  0  0  0  0  0  0  0
    4.4241   11.7277   34.8108 H   0  0  0  0  0  0  0  0  0  0  0  0
    3.7773   13.0234   35.8326 H   0  0  0  0  0  0  0  0  0  0  0  0
    4.8787    9.2801   37.6914 H   0  0  0  0  0  0  0  0  0  0  0  0
    5.0418    9.4373   35.9333 H   0  0  0  0  0  0  0  0  0  0  0  0
    3.4346    9.4187   36.6785 H   0  0  0  0  0  0  0  0  0  0  0  0
  1 25  1  0  0  0  0
  1 32  1  0  0  0  0
  1 33  1  0  0  0  0
  1 34  1  0  0  0  0
  2  3  2  0  0  0  0
  2  8  1  0  0  0  0
  2  7  1  0  0  0  0
  3  4  1  0  0  0  0
  3 11  1  0  0  0  0
  4  9  1  0  0  0  0
  4  5  2  0  0  0  0
  5  6  1  0  0  0  0
  5 13  1  0  0  0  0
  6  7  2  0  0  0  0
  6 14  1  0  0  0  0
  7 15  1  0  0  0  0
  8 35  1  0  0  0  0
  8 36  1  0  0  0  0
  8 37  1  0  0  0  0
  9 10  1  0  0  0  0
 10 17  1  6  0  0  0
 10 16  1  0  0  0  0
 10 12  1  0  0  0  0
 11 12  1  0  0  0  0
 11 38  1  0  0  0  0
 11 39  1  0  0  0  0
 12 40  1  0  0  0  0
 12 41  1  0  0  0  0
 13 42  1  0  0  0  0
 13 43  1  0  0  0  0
 13 44  1  0  0  0  0
 14 45  1  0  0  0  0
 14 46  1  0  0  0  0
 14 47  1  0  0  0  0
 15 48  1  0  0  0  0
 16 49  1  0  0  0  0
 16 50  1  0  0  0  0
 16 51  1  0  0  0  0
 17 18  1  0  0  0  0
 17 52  1  0  0  0  0
 17 53  1  0  0  0  0
 18 19  1  0  0  0  0
 18 54  1  0  0  0  0
 18 55  1  0  0  0  0
 19 20  1  0  0  0  0
 19 56  1  0  0  0  0
 19 57  1  0  0  0  0
 20 22  1  0  0  0  0
 20 21  1  0  0  0  0
 20 58  1  6  0  0  0
 21 59  1  0  0  0  0
 21 60  1  0  0  0  0
 21 61  1  0  0  0  0
 22 23  1  0  0  0  0
 22 62  1  0  0  0  0
 22 63  1  0  0  0  0
 23 24  2  0  0  0  0
 23 64  1  0  0  0  0
 24 25  1  0  0  0  0
 24 65  1  0  0  0  0
 25 26  1  0  0  0  0
 25 66  1  6  0  0  0
 26 27  2  0  0  0  0
 26 67  1  0  0  0  0
 27 28  1  0  0  0  0
 27 68  1  0  0  0  0
 28 29  1  0  0  0  0
 28 69  1  0  0  0  0
 28 70  1  0  0  0  0
 29 31  1  0  0  0  0
 29 30  1  0  0  0  0
 29 71  1  0  0  0  0
 30 72  1  0  0  0  0
 30 73  1  0  0  0  0
 30 74  1  0  0  0  0
 31 75  1  0  0  0  0
 31 76  1  0  0  0  0
 31 77  1  0  0  0  0
M  END
$$$$
