XIL
 OpenBabel04041915073D

 35 36  0  0  1  0  0  0  0  0999 V2000
   16.9090   65.2740   38.6761 C   0  0  1  0  0  0  0  0  0  0  0  0
   16.7418   64.2538   39.8170 C   0  0  2  0  0  0  0  0  0  0  0  0
   17.6065   63.1210   39.6243 O   0  0  0  0  0  0  0  0  0  0  0  0
   15.2994   63.7508   39.8477 C   0  0  1  0  0  0  0  0  0  0  0  0
   15.1120   62.9028   40.9905 O   0  0  0  0  0  0  0  0  0  0  0  0
   14.2996   64.9093   39.8615 C   0  0  2  0  0  0  0  0  0  0  0  0
   12.9720   64.3870   39.7508 O   0  0  0  0  0  0  0  0  0  0  0  0
   14.6152   65.8760   38.7216 C   0  0  0  0  0  0  0  0  0  0  0  0
   15.9581   66.3337   38.7975 O   0  0  0  0  0  0  0  0  0  0  0  0
   20.3731   67.7230   35.7185 N   0  0  0  0  0  0  0  0  0  0  0  0
   20.4435   68.2893   36.9679 C   0  0  0  0  0  0  0  0  0  0  0  0
   19.7049   67.5865   38.1193 C   0  0  1  0  0  0  0  0  0  0  0  0
   21.1465   69.2769   37.1544 O   0  0  0  0  0  0  0  0  0  0  0  0
   19.1999   68.5461   39.0524 O   0  0  0  0  0  0  0  0  0  0  0  0
   18.5622   66.6736   37.6542 C   0  0  2  0  0  0  0  0  0  0  0  0
   18.2351   65.7960   38.7401 O   0  0  0  0  0  0  0  0  0  0  0  0
   19.0078   65.8516   36.4453 C   0  0  0  0  0  0  0  0  0  0  0  0
   19.3252   66.8151   35.3236 C   0  0  0  0  0  0  0  0  0  0  0  0
   16.7739   64.7665   37.7141 H   0  0  0  0  0  0  0  0  0  0  0  0
   17.0165   64.7067   40.7781 H   0  0  0  0  0  0  0  0  0  0  0  0
   17.4256   62.5353   40.3848 H   0  0  0  0  0  0  0  0  0  0  0  0
   15.1138   63.1070   38.9786 H   0  0  0  0  0  0  0  0  0  0  0  0
   14.1513   62.7328   41.0464 H   0  0  0  0  0  0  0  0  0  0  0  0
   14.3630   65.4319   40.8233 H   0  0  0  0  0  0  0  0  0  0  0  0
   12.8667   63.9904   38.8680 H   0  0  0  0  0  0  0  0  0  0  0  0
   13.9523   66.7465   38.7710 H   0  0  0  0  0  0  0  0  0  0  0  0
   14.4398   65.4130   37.7422 H   0  0  0  0  0  0  0  0  0  0  0  0
   20.8880   68.2257   35.0047 H   0  0  0  0  0  0  0  0  0  0  0  0
   20.4521   66.9875   38.6536 H   0  0  0  0  0  0  0  0  0  0  0  0
   19.9645   69.0899   39.3169 H   0  0  0  0  0  0  0  0  0  0  0  0
   17.6914   67.2914   37.3994 H   0  0  0  0  0  0  0  0  0  0  0  0
   18.2384   65.1401   36.1305 H   0  0  0  0  0  0  0  0  0  0  0  0
   19.8918   65.2539   36.7052 H   0  0  0  0  0  0  0  0  0  0  0  0
   19.6543   66.2854   34.4253 H   0  0  0  0  0  0  0  0  0  0  0  0
   18.4425   67.4119   35.0633 H   0  0  0  0  0  0  0  0  0  0  0  0
  1 16  1  0  0  0  0
  1  9  1  0  0  0  0
  1  2  1  0  0  0  0
  1 19  1  6  0  0  0
  2  4  1  0  0  0  0
  2  3  1  0  0  0  0
  2 20  1  1  0  0  0
  3 21  1  0  0  0  0
  4  6  1  0  0  0  0
  4  5  1  0  0  0  0
  4 22  1  6  0  0  0
  5 23  1  0  0  0  0
  6  8  1  0  0  0  0
  6  7  1  0  0  0  0
  6 24  1  1  0  0  0
  7 25  1  0  0  0  0
  8  9  1  0  0  0  0
  8 26  1  0  0  0  0
  8 27  1  0  0  0  0
 10 11  1  0  0  0  0
 10 18  1  0  0  0  0
 10 28  1  0  0  0  0
 11 12  1  0  0  0  0
 11 13  2  0  0  0  0
 12 15  1  0  0  0  0
 12 14  1  0  0  0  0
 12 29  1  1  0  0  0
 14 30  1  0  0  0  0
 15 16  1  0  0  0  0
 15 17  1  0  0  0  0
 15 31  1  6  0  0  0
 17 18  1  0  0  0  0
 17 32  1  0  0  0  0
 17 33  1  0  0  0  0
 18 34  1  0  0  0  0
 18 35  1  0  0  0  0
M  END
$$$$
