XK2
 OpenBabel04041915003D

 84 90  0  0  1  0  0  0  0  0999 V2000
   -8.5971   15.0562   27.9699 C   0  0  0  0  0  0  0  0  0  0  0  0
   -7.9379   14.0136   27.9669 O   0  0  0  0  0  0  0  0  0  0  0  0
   -8.5992   15.8865   26.8581 N   0  0  0  0  0  0  0  0  0  0  0  0
   -7.8839   15.3268   25.7035 C   0  0  0  0  0  0  0  0  0  0  0  0
   -8.6026   17.3635   26.9685 C   0  0  1  0  0  0  0  0  0  0  0  0
   -9.9929   17.9293   27.2920 C   0  0  2  0  0  0  0  0  0  0  0  0
   -9.9722   19.3581   27.1052 O   0  0  0  0  0  0  0  0  0  0  0  0
  -10.4581   17.6351   28.7103 C   0  0  1  0  0  0  0  0  0  0  0  0
  -11.7188   18.3025   28.9244 O   0  0  0  0  0  0  0  0  0  0  0  0
  -10.6352   16.1382   28.9970 C   0  0  2  0  0  0  0  0  0  0  0  0
   -9.3474   15.4116   29.0797 N   0  0  0  0  0  0  0  0  0  0  0  0
   -9.2041   14.4868   30.2090 C   0  0  0  0  0  0  0  0  0  0  0  0
   -8.3819   15.7328   24.3402 C   0  0  0  0  0  0  0  0  0  0  0  0
   -9.7428   15.7158   24.0147 C   0  0  0  0  0  0  0  0  0  0  0  0
  -10.1514   15.9341   22.6982 C   0  0  0  0  0  0  0  0  0  0  0  0
   -9.2095   16.1582   21.6809 C   0  0  0  0  0  0  0  0  0  0  0  0
   -9.5942   16.3225   20.3423 C   0  0  0  0  0  0  0  0  0  0  0  0
   -8.6370   16.5243   19.3452 C   0  0  0  0  0  0  0  0  0  0  0  0
   -7.2855   16.5743   19.6729 C   0  0  0  0  0  0  0  0  0  0  0  0
   -6.8869   16.4159   20.9978 C   0  0  0  0  0  0  0  0  0  0  0  0
   -7.8328   16.2007   22.0080 C   0  0  0  0  0  0  0  0  0  0  0  0
   -7.4444   15.9959   23.3335 C   0  0  0  0  0  0  0  0  0  0  0  0
   -7.4699   17.9411   27.8685 C   0  0  0  0  0  0  0  0  0  0  0  0
   -6.1180   17.8796   27.1936 C   0  0  0  0  0  0  0  0  0  0  0  0
   -5.2153   16.8490   27.4973 C   0  0  0  0  0  0  0  0  0  0  0  0
   -4.0357   16.7049   26.7661 C   0  0  0  0  0  0  0  0  0  0  0  0
   -3.7338   17.6003   25.7411 C   0  0  0  0  0  0  0  0  0  0  0  0
   -4.6030   18.6508   25.4556 C   0  0  0  0  0  0  0  0  0  0  0  0
   -5.7902   18.7908   26.1782 C   0  0  0  0  0  0  0  0  0  0  0  0
  -11.6958   15.4489   28.0956 C   0  0  0  0  0  0  0  0  0  0  0  0
  -12.3214   14.2375   28.7560 C   0  0  0  0  0  0  0  0  0  0  0  0
  -13.1727   14.3882   29.8616 C   0  0  0  0  0  0  0  0  0  0  0  0
  -13.6951   13.2694   30.5115 C   0  0  0  0  0  0  0  0  0  0  0  0
  -13.3805   11.9907   30.0549 C   0  0  0  0  0  0  0  0  0  0  0  0
  -12.5464   11.8312   28.9497 C   0  0  0  0  0  0  0  0  0  0  0  0
  -12.0192   12.9485   28.3010 C   0  0  0  0  0  0  0  0  0  0  0  0
   -9.3513   15.1050   31.5739 C   0  0  0  0  0  0  0  0  0  0  0  0
  -10.2157   14.4995   32.4975 C   0  0  0  0  0  0  0  0  0  0  0  0
  -10.2995   14.9577   33.8135 C   0  0  0  0  0  0  0  0  0  0  0  0
  -11.1549   14.3290   34.7316 C   0  0  0  0  0  0  0  0  0  0  0  0
  -11.2251   14.7764   36.0480 C   0  0  0  0  0  0  0  0  0  0  0  0
  -10.4385   15.8468   36.4608 C   0  0  0  0  0  0  0  0  0  0  0  0
   -9.5791   16.4785   35.5562 C   0  0  0  0  0  0  0  0  0  0  0  0
   -9.5044   16.0503   34.2224 C   0  0  0  0  0  0  0  0  0  0  0  0
   -8.6573   16.6704   33.2889 C   0  0  0  0  0  0  0  0  0  0  0  0
   -8.5821   16.2030   31.9733 C   0  0  0  0  0  0  0  0  0  0  0  0
   -7.9354   14.2294   25.7180 H   0  0  0  0  0  0  0  0  0  0  0  0
   -6.8277   15.5787   25.8092 H   0  0  0  0  0  0  0  0  0  0  0  0
   -8.4039   17.7506   25.9591 H   0  0  0  0  0  0  0  0  0  0  0  0
  -10.7211   17.5402   26.5691 H   0  0  0  0  0  0  0  0  0  0  0  0
  -10.9011   19.6459   27.0547 H   0  0  0  0  0  0  0  0  0  0  0  0
   -9.7602   18.0657   29.4388 H   0  0  0  0  0  0  0  0  0  0  0  0
  -11.5220   19.2528   29.0030 H   0  0  0  0  0  0  0  0  0  0  0  0
  -11.0601   16.1339   30.0094 H   0  0  0  0  0  0  0  0  0  0  0  0
   -8.2202   14.0006   30.2003 H   0  0  0  0  0  0  0  0  0  0  0  0
   -9.9340   13.6831   30.0695 H   0  0  0  0  0  0  0  0  0  0  0  0
  -10.4866   15.4993   24.7761 H   0  0  0  0  0  0  0  0  0  0  0  0
  -11.2130   15.8976   22.4641 H   0  0  0  0  0  0  0  0  0  0  0  0
  -10.6445   16.2799   20.0638 H   0  0  0  0  0  0  0  0  0  0  0  0
   -8.9495   16.6378   18.3100 H   0  0  0  0  0  0  0  0  0  0  0  0
   -6.5407   16.7281   18.8959 H   0  0  0  0  0  0  0  0  0  0  0  0
   -5.8242   16.4471   21.2379 H   0  0  0  0  0  0  0  0  0  0  0  0
   -6.3802   16.0016   23.5841 H   0  0  0  0  0  0  0  0  0  0  0  0
   -7.4231   17.4258   28.8347 H   0  0  0  0  0  0  0  0  0  0  0  0
   -7.6655   18.9942   28.1057 H   0  0  0  0  0  0  0  0  0  0  0  0
   -5.4517   16.1210   28.2717 H   0  0  0  0  0  0  0  0  0  0  0  0
   -3.3624   15.8793   26.9827 H   0  0  0  0  0  0  0  0  0  0  0  0
   -2.8221   17.4771   25.1626 H   0  0  0  0  0  0  0  0  0  0  0  0
   -4.3674   19.3527   24.6606 H   0  0  0  0  0  0  0  0  0  0  0  0
   -6.4714   19.6010   25.9277 H   0  0  0  0  0  0  0  0  0  0  0  0
  -11.2649   15.1586   27.1308 H   0  0  0  0  0  0  0  0  0  0  0  0
  -12.5141   16.1401   27.8573 H   0  0  0  0  0  0  0  0  0  0  0  0
  -13.4185   15.3805   30.2374 H   0  0  0  0  0  0  0  0  0  0  0  0
  -14.3412   13.3952   31.3759 H   0  0  0  0  0  0  0  0  0  0  0  0
  -13.7843   11.1180   30.5606 H   0  0  0  0  0  0  0  0  0  0  0  0
  -12.2961   10.8344   28.5962 H   0  0  0  0  0  0  0  0  0  0  0  0
  -11.3497   12.8059   27.4556 H   0  0  0  0  0  0  0  0  0  0  0  0
  -10.8151   13.6458   32.1849 H   0  0  0  0  0  0  0  0  0  0  0  0
  -11.7651   13.4855   34.4237 H   0  0  0  0  0  0  0  0  0  0  0  0
  -11.8947   14.2843   36.7506 H   0  0  0  0  0  0  0  0  0  0  0  0
  -10.4885   16.1909   37.4908 H   0  0  0  0  0  0  0  0  0  0  0  0
   -8.9639   17.3049   35.9032 H   0  0  0  0  0  0  0  0  0  0  0  0
   -8.0360   17.5140   33.5848 H   0  0  0  0  0  0  0  0  0  0  0  0
   -7.9080   16.6858   31.2706 H   0  0  0  0  0  0  0  0  0  0  0  0
  1  2  2  0  0  0  0
  1  3  1  0  0  0  0
  1 11  1  0  0  0  0
  3  4  1  0  0  0  0
  3  5  1  0  0  0  0
  4 13  1  0  0  0  0
  4 47  1  0  0  0  0
  4 48  1  0  0  0  0
  5  6  1  0  0  0  0
  5 23  1  0  0  0  0
  5 49  1  6  0  0  0
  6  7  1  0  0  0  0
  6  8  1  0  0  0  0
  6 50  1  6  0  0  0
  7 51  1  0  0  0  0
  8  9  1  0  0  0  0
  8 10  1  0  0  0  0
  8 52  1  1  0  0  0
  9 53  1  0  0  0  0
 10 11  1  0  0  0  0
 10 30  1  0  0  0  0
 10 54  1  1  0  0  0
 11 12  1  0  0  0  0
 12 37  1  0  0  0  0
 12 55  1  0  0  0  0
 12 56  1  0  0  0  0
 13 14  2  0  0  0  0
 13 22  1  0  0  0  0
 14 15  1  0  0  0  0
 14 57  1  0  0  0  0
 15 16  2  0  0  0  0
 15 58  1  0  0  0  0
 16 17  1  0  0  0  0
 16 21  1  0  0  0  0
 17 18  2  0  0  0  0
 17 59  1  0  0  0  0
 18 19  1  0  0  0  0
 18 60  1  0  0  0  0
 19 20  2  0  0  0  0
 19 61  1  0  0  0  0
 20 21  1  0  0  0  0
 20 62  1  0  0  0  0
 21 22  2  0  0  0  0
 22 63  1  0  0  0  0
 23 24  1  0  0  0  0
 23 64  1  0  0  0  0
 23 65  1  0  0  0  0
 24 25  2  0  0  0  0
 24 29  1  0  0  0  0
 25 26  1  0  0  0  0
 25 66  1  0  0  0  0
 26 27  2  0  0  0  0
 26 67  1  0  0  0  0
 27 28  1  0  0  0  0
 27 68  1  0  0  0  0
 28 29  2  0  0  0  0
 28 69  1  0  0  0  0
 29 70  1  0  0  0  0
 30 31  1  0  0  0  0
 30 71  1  0  0  0  0
 30 72  1  0  0  0  0
 31 32  2  0  0  0  0
 31 36  1  0  0  0  0
 32 33  1  0  0  0  0
 32 73  1  0  0  0  0
 33 34  2  0  0  0  0
 33 74  1  0  0  0  0
 34 35  1  0  0  0  0
 34 75  1  0  0  0  0
 35 36  2  0  0  0  0
 35 76  1  0  0  0  0
 36 77  1  0  0  0  0
 37 38  2  0  0  0  0
 37 46  1  0  0  0  0
 38 39  1  0  0  0  0
 38 78  1  0  0  0  0
 39 40  2  0  0  0  0
 39 44  1  0  0  0  0
 40 41  1  0  0  0  0
 40 79  1  0  0  0  0
 41 42  2  0  0  0  0
 41 80  1  0  0  0  0
 42 43  1  0  0  0  0
 42 81  1  0  0  0  0
 43 44  2  0  0  0  0
 43 82  1  0  0  0  0
 44 45  1  0  0  0  0
 45 46  2  0  0  0  0
 45 83  1  0  0  0  0
 46 84  1  0  0  0  0
M  END
$$$$
