XN1
 OpenBabel04041915173D

 96100  0  0  1  0  0  0  0  0999 V2000
    3.2209   -5.3572   16.3260 N   0  0  0  0  0  0  0  0  0  0  0  0
    4.5843   -5.1872   15.7952 C   0  0  0  0  0  0  0  0  0  0  0  0
    5.3514   -4.0105   16.4155 C   0  0  1  0  0  0  0  0  0  0  0  0
    6.7405   -3.9987   15.7037 C   0  0  0  0  0  0  0  0  0  0  0  0
    6.8507   -3.5809   14.5927 O   0  0  0  0  0  0  0  0  0  0  0  0
    7.7489   -4.5559   16.4678 N   0  0  0  0  0  0  0  0  0  0  0  0
    9.1645   -4.7346   16.1130 C   0  0  0  0  0  0  0  0  0  0  0  0
    9.8997   -5.3741   17.2883 C   0  0  0  0  0  0  0  0  0  0  0  0
    9.8394   -3.4310   15.8681 C   0  0  0  0  0  0  0  0  0  0  0  0
    9.3976   -5.6055   14.9003 C   0  0  0  0  0  0  0  0  0  0  0  0
    4.4942   -2.7585   16.1295 N   0  3  1  0  0  0  0  0  0  0  0  0
    3.0471   -2.8752   16.5719 C   0  0  0  0  0  0  0  0  0  0  0  0
    2.4262   -4.1475   16.0236 C   0  0  0  0  0  0  0  0  0  0  0  0
    5.0470   -1.5153   16.6428 C   0  0  0  0  0  0  0  0  0  0  0  0
    5.0057   -0.3939   15.6047 C   0  0  1  0  0  0  0  0  0  0  0  0
    5.0982    0.7144   16.4936 O   0  0  0  0  0  0  0  0  0  0  0  0
    6.1849   -0.2917   14.6343 C   0  0  0  0  0  0  0  0  0  0  0  0
    6.1551    0.8046   13.5397 C   0  0  1  0  0  0  0  0  0  0  0  0
    7.4663    0.7856   12.6579 C   0  0  1  0  0  0  0  0  0  0  0  0
    7.4885    1.8677   11.5677 C   0  0  0  0  0  0  0  0  0  0  0  0
    7.3395    3.2499   11.8585 C   0  0  0  0  0  0  0  0  0  0  0  0
    7.3245    4.1907   10.8054 C   0  0  0  0  0  0  0  0  0  0  0  0
    7.4789    3.7480    9.4721 C   0  0  0  0  0  0  0  0  0  0  0  0
    7.6424    2.3747    9.1831 C   0  0  0  0  0  0  0  0  0  0  0  0
    7.6493    1.4383   10.2276 C   0  0  0  0  0  0  0  0  0  0  0  0
    4.9530    0.5517   12.5499 C   0  0  0  0  0  0  0  0  0  0  0  0
    4.5153   -0.5039   12.2409 O   0  0  0  0  0  0  0  0  0  0  0  0
    4.4728    1.7650   12.0800 N   0  0  0  0  0  0  0  0  0  0  0  0
    3.4258    1.8679   11.0767 C   0  0  2  0  0  0  0  0  0  0  0  0
    3.4176    3.2745   10.4582 C   0  0  2  0  0  0  0  0  0  0  0  0
    3.7011    4.2711   11.4616 O   0  0  0  0  0  0  0  0  0  0  0  0
    2.0111    3.4175    9.8411 C   0  0  0  0  0  0  0  0  0  0  0  0
    1.1271    2.6252   10.7884 C   0  0  0  0  0  0  0  0  0  0  0  0
   -0.2792    2.6791   10.9676 C   0  0  0  0  0  0  0  0  0  0  0  0
   -0.8319    1.8028   11.9259 C   0  0  0  0  0  0  0  0  0  0  0  0
    0.0047    0.9059   12.6574 C   0  0  0  0  0  0  0  0  0  0  0  0
    1.3964    0.8674   12.4499 C   0  0  0  0  0  0  0  0  0  0  0  0
    1.9556    1.7411   11.5158 C   0  0  0  0  0  0  0  0  0  0  0  0
    2.5100   -6.5139   15.7057 C   0  0  0  0  0  0  0  0  0  0  0  0
    3.1407   -7.8948   15.8790 C   0  0  0  0  0  0  0  0  0  0  0  0
    3.2850   -8.5320   17.1216 C   0  0  0  0  0  0  0  0  0  0  0  0
    3.8483   -9.7740   17.2801 N   0  0  0  0  0  0  0  0  0  0  0  0
    4.2714  -10.4237   16.1527 C   0  0  0  0  0  0  0  0  0  0  0  0
    4.1581   -9.8754   14.8699 C   0  0  0  0  0  0  0  0  0  0  0  0
    3.5825   -8.5984   14.7357 C   0  0  0  0  0  0  0  0  0  0  0  0
    8.8566    0.7887   13.3221 C   0  0  0  0  0  0  0  0  0  0  0  0
    4.5524   -5.0051   14.7122 H   0  0  0  0  0  0  0  0  0  0  0  0
    5.1594   -6.0888   15.9935 H   0  0  0  0  0  0  0  0  0  0  0  0
    5.5121   -4.1016   17.4994 H   0  0  0  0  0  0  0  0  0  0  0  0
    7.5217   -4.8702   17.3885 H   0  0  0  0  0  0  0  0  0  0  0  0
   10.9629   -5.5022   17.0479 H   0  0  0  0  0  0  0  0  0  0  0  0
    9.4644   -6.3481   17.5032 H   0  0  0  0  0  0  0  0  0  0  0  0
    9.8200   -4.7390   18.1761 H   0  0  0  0  0  0  0  0  0  0  0  0
   10.8927   -3.6328   15.6112 H   0  0  0  0  0  0  0  0  0  0  0  0
    9.7892   -2.8349   16.7801 H   0  0  0  0  0  0  0  0  0  0  0  0
    9.3521   -2.9144   15.0369 H   0  0  0  0  0  0  0  0  0  0  0  0
   10.4771   -5.6731   14.7061 H   0  0  0  0  0  0  0  0  0  0  0  0
    8.9098   -5.1805   14.0210 H   0  0  0  0  0  0  0  0  0  0  0  0
    9.0085   -6.5999   15.1033 H   0  0  0  0  0  0  0  0  0  0  0  0
    2.5140   -1.9983   16.1828 H   0  0  0  0  0  0  0  0  0  0  0  0
    3.0236   -2.8634   17.6662 H   0  0  0  0  0  0  0  0  0  0  0  0
    1.4322   -4.2446   16.4762 H   0  0  0  0  0  0  0  0  0  0  0  0
    2.3212   -4.0345   14.9371 H   0  0  0  0  0  0  0  0  0  0  0  0
    6.0572   -1.6492   17.0193 H   0  0  0  0  0  0  0  0  0  0  0  0
    4.4108   -1.2111   17.5026 H   0  0  0  0  0  0  0  0  0  0  0  0
    4.0487   -0.4219   15.0533 H   0  0  0  0  0  0  0  0  0  0  0  0
    4.4061    0.6145   17.1653 H   0  0  0  0  0  0  0  0  0  0  0  0
    6.3026   -1.2406   14.1230 H   0  0  0  0  0  0  0  0  0  0  0  0
    7.0628   -0.0743   15.2468 H   0  0  0  0  0  0  0  0  0  0  0  0
    6.0336    1.7903   14.0177 H   0  0  0  0  0  0  0  0  0  0  0  0
    7.4367   -0.2005   12.1706 H   0  0  0  0  0  0  0  0  0  0  0  0
    7.2158    3.5966   12.8941 H   0  0  0  0  0  0  0  0  0  0  0  0
    7.1975    5.2613   11.0256 H   0  0  0  0  0  0  0  0  0  0  0  0
    7.4774    4.4690    8.6473 H   0  0  0  0  0  0  0  0  0  0  0  0
    7.7663    2.0275    8.1488 H   0  0  0  0  0  0  0  0  0  0  0  0
    7.7753    0.3702   10.0016 H   0  0  0  0  0  0  0  0  0  0  0  0
    4.9231    2.6222   12.3767 H   0  0  0  0  0  0  0  0  0  0  0  0
    3.6505    1.1428   10.2885 H   0  0  0  0  0  0  0  0  0  0  0  0
    4.1872    3.3678    9.6866 H   0  0  0  0  0  0  0  0  0  0  0  0
    3.6496    5.1428   11.0337 H   0  0  0  0  0  0  0  0  0  0  0  0
    2.0415    2.9411    8.8543 H   0  0  0  0  0  0  0  0  0  0  0  0
    1.7552    4.4740    9.7645 H   0  0  0  0  0  0  0  0  0  0  0  0
   -0.9397    3.3608   10.4194 H   0  0  0  0  0  0  0  0  0  0  0  0
   -1.9090    1.7940   12.1240 H   0  0  0  0  0  0  0  0  0  0  0  0
   -0.4372    0.2304   13.3961 H   0  0  0  0  0  0  0  0  0  0  0  0
    2.0100    0.1674   13.0231 H   0  0  0  0  0  0  0  0  0  0  0  0
    2.4057   -6.3072   14.6254 H   0  0  0  0  0  0  0  0  0  0  0  0
    1.4895   -6.5439   16.1277 H   0  0  0  0  0  0  0  0  0  0  0  0
    2.9368   -8.0060   18.0273 H   0  0  0  0  0  0  0  0  0  0  0  0
    4.7252  -11.4242   16.2576 H   0  0  0  0  0  0  0  0  0  0  0  0
    4.5092  -10.4269   13.9862 H   0  0  0  0  0  0  0  0  0  0  0  0
    3.4791   -8.1459   13.7423 H   0  0  0  0  0  0  0  0  0  0  0  0
    9.6384    0.7484   12.5367 H   0  0  0  0  0  0  0  0  0  0  0  0
    9.0058   -0.0878   13.9638 H   0  0  0  0  0  0  0  0  0  0  0  0
    9.0241    1.6980   13.9060 H   0  0  0  0  0  0  0  0  0  0  0  0
    4.4831   -2.6920   15.1041 H   0  0  0  0  0  0  0  0  0  0  0  0
  1 39  1  0  0  0  0
  1 13  1  0  0  0  0
  1  2  1  0  0  0  0
  2  3  1  0  0  0  0
  2 47  1  0  0  0  0
  2 48  1  0  0  0  0
  3 11  1  0  0  0  0
  3  4  1  0  0  0  0
  3 49  1  1  0  0  0
  4  6  1  0  0  0  0
  4  5  2  0  0  0  0
  6  7  1  0  0  0  0
  6 50  1  0  0  0  0
  7 10  1  0  0  0  0
  7  9  1  0  0  0  0
  7  8  1  0  0  0  0
  8 51  1  0  0  0  0
  8 52  1  0  0  0  0
  8 53  1  0  0  0  0
  9 54  1  0  0  0  0
  9 55  1  0  0  0  0
  9 56  1  0  0  0  0
 10 57  1  0  0  0  0
 10 58  1  0  0  0  0
 10 59  1  0  0  0  0
 11 14  1  0  0  0  0
 11 12  1  0  0  0  0
 11 96  1  6  0  0  0
 12 13  1  0  0  0  0
 12 60  1  0  0  0  0
 12 61  1  0  0  0  0
 13 62  1  0  0  0  0
 13 63  1  0  0  0  0
 14 15  1  0  0  0  0
 14 64  1  0  0  0  0
 14 65  1  0  0  0  0
 15 17  1  0  0  0  0
 15 16  1  0  0  0  0
 15 66  1  6  0  0  0
 16 67  1  0  0  0  0
 17 18  1  0  0  0  0
 17 68  1  0  0  0  0
 17 69  1  0  0  0  0
 18 26  1  0  0  0  0
 18 19  1  0  0  0  0
 18 70  1  1  0  0  0
 19 46  1  0  0  0  0
 19 20  1  0  0  0  0
 19 71  1  6  0  0  0
 20 25  2  0  0  0  0
 20 21  1  0  0  0  0
 21 22  2  0  0  0  0
 21 72  1  0  0  0  0
 22 23  1  0  0  0  0
 22 73  1  0  0  0  0
 23 24  2  0  0  0  0
 23 74  1  0  0  0  0
 24 25  1  0  0  0  0
 24 75  1  0  0  0  0
 25 76  1  0  0  0  0
 26 28  1  0  0  0  0
 26 27  2  0  0  0  0
 28 29  1  0  0  0  0
 28 77  1  0  0  0  0
 29 38  1  0  0  0  0
 29 30  1  0  0  0  0
 29 78  1  6  0  0  0
 30 32  1  0  0  0  0
 30 31  1  0  0  0  0
 30 79  1  6  0  0  0
 31 80  1  0  0  0  0
 32 33  1  0  0  0  0
 32 81  1  0  0  0  0
 32 82  1  0  0  0  0
 33 38  2  0  0  0  0
 33 34  1  0  0  0  0
 34 35  2  0  0  0  0
 34 83  1  0  0  0  0
 35 36  1  0  0  0  0
 35 84  1  0  0  0  0
 36 37  2  0  0  0  0
 36 85  1  0  0  0  0
 37 38  1  0  0  0  0
 37 86  1  0  0  0  0
 39 40  1  0  0  0  0
 39 87  1  0  0  0  0
 39 88  1  0  0  0  0
 40 45  2  0  0  0  0
 40 41  1  0  0  0  0
 41 42  2  0  0  0  0
 41 89  1  0  0  0  0
 42 43  1  0  0  0  0
 43 44  2  0  0  0  0
 43 90  1  0  0  0  0
 44 45  1  0  0  0  0
 44 91  1  0  0  0  0
 45 92  1  0  0  0  0
 46 93  1  0  0  0  0
 46 94  1  0  0  0  0
 46 95  1  0  0  0  0
M  CHG  1  11   1
M  END
$$$$
