XV6
 OpenBabel04041914053D

 92 98  0  0  1  0  0  0  0  0999 V2000
   -8.3763   14.3489   27.8634 O   0  0  0  0  0  0  0  0  0  0  0  0
  -11.9345   18.8035   28.8670 O   0  0  0  0  0  0  0  0  0  0  0  0
  -10.1509   19.7776   26.9879 O   0  0  0  0  0  0  0  0  0  0  0  0
   -9.7176   15.8055   28.9713 N   0  0  0  0  0  0  0  0  0  0  0  0
   -8.8764   16.2851   26.7932 N   0  0  0  0  0  0  0  0  0  0  0  0
   -8.9655   15.4317   27.8740 C   0  0  0  0  0  0  0  0  0  0  0  0
   -9.6109   14.9066   30.1246 C   0  0  0  0  0  0  0  0  0  0  0  0
  -10.9566   16.6129   28.9094 C   0  0  1  0  0  0  0  0  0  0  0  0
  -10.7055   18.0924   28.6239 C   0  0  1  0  0  0  0  0  0  0  0  0
  -10.2523   18.3573   27.1964 C   0  0  2  0  0  0  0  0  0  0  0  0
   -8.8814   17.7561   26.8855 C   0  0  1  0  0  0  0  0  0  0  0  0
   -8.1697   15.7469   25.6307 C   0  0  0  0  0  0  0  0  0  0  0  0
  -12.0741   15.9923   28.0309 C   0  0  0  0  0  0  0  0  0  0  0  0
  -12.6079   14.7111   28.6278 C   0  0  0  0  0  0  0  0  0  0  0  0
  -12.1948   13.4715   28.1225 C   0  0  0  0  0  0  0  0  0  0  0  0
  -12.5594   12.2937   28.7728 C   0  0  0  0  0  0  0  0  0  0  0  0
  -13.3464   12.3451   29.9229 C   0  0  0  0  0  0  0  0  0  0  0  0
  -13.7846   13.5726   30.4172 C   0  0  0  0  0  0  0  0  0  0  0  0
  -13.4232   14.7521   29.7689 C   0  0  0  0  0  0  0  0  0  0  0  0
   -7.7566   18.3294   27.7853 C   0  0  0  0  0  0  0  0  0  0  0  0
   -6.3849   18.2540   27.1588 C   0  0  0  0  0  0  0  0  0  0  0  0
   -6.0914   18.9869   25.9985 C   0  0  0  0  0  0  0  0  0  0  0  0
   -4.8251   18.9151   25.4215 C   0  0  0  0  0  0  0  0  0  0  0  0
   -3.8418   18.1160   26.0021 C   0  0  0  0  0  0  0  0  0  0  0  0
   -4.1259   17.3819   27.1531 C   0  0  0  0  0  0  0  0  0  0  0  0
   -5.3928   17.4491   27.7300 C   0  0  0  0  0  0  0  0  0  0  0  0
   -9.5997   15.6217   31.4495 C   0  0  0  0  0  0  0  0  0  0  0  0
  -10.3693   15.1113   32.5042 C   0  0  0  0  0  0  0  0  0  0  0  0
  -10.3052   15.6953   33.7653 C   0  0  0  0  0  0  0  0  0  0  0  0
   -9.5069   16.8364   33.9605 C   0  0  0  0  0  0  0  0  0  0  0  0
   -8.7487   17.3551   32.9126 C   0  0  0  0  0  0  0  0  0  0  0  0
   -8.7857   16.7413   31.6638 C   0  0  0  0  0  0  0  0  0  0  0  0
  -11.0415   15.1397   34.9289 C   0  0  0  0  0  0  0  0  0  0  0  0
  -11.3754   15.9413   35.7990 O   0  0  0  0  0  0  0  0  0  0  0  0
  -11.2370   13.7697   34.9356 N   0  0  0  0  0  0  0  0  0  0  0  0
  -11.8463   11.7380   36.0163 N   0  0  0  0  0  0  0  0  0  0  0  0
  -11.8059   13.0636   35.9714 C   0  0  0  0  0  0  0  0  0  0  0  0
  -12.4481   11.3401   37.2034 C   0  0  0  0  0  0  0  0  0  0  0  0
  -12.5334   13.8516   37.3025 S   0  0  0  0  0  0  0  0  0  0  0  0
  -12.8940   12.3525   38.0229 C   0  0  0  0  0  0  0  0  0  0  0  0
   -8.8588   16.0562   24.3218 C   0  0  0  0  0  0  0  0  0  0  0  0
   -8.0755   16.4478   23.2354 C   0  0  0  0  0  0  0  0  0  0  0  0
   -8.6491   16.7006   21.9857 C   0  0  0  0  0  0  0  0  0  0  0  0
  -10.0383   16.5635   21.8349 C   0  0  0  0  0  0  0  0  0  0  0  0
  -10.8312   16.1708   22.9193 C   0  0  0  0  0  0  0  0  0  0  0  0
  -10.2398   15.9118   24.1543 C   0  0  0  0  0  0  0  0  0  0  0  0
   -7.8037   17.1089   20.8218 C   0  0  0  0  0  0  0  0  0  0  0  0
   -8.3509   17.7418   19.9148 O   0  0  0  0  0  0  0  0  0  0  0  0
   -6.4932   16.6843   20.8636 N   0  0  0  0  0  0  0  0  0  0  0  0
   -4.4107   16.1206   19.9502 N   0  0  0  0  0  0  0  0  0  0  0  0
   -5.5389   16.7859   19.8749 C   0  0  0  0  0  0  0  0  0  0  0  0
   -3.6595   16.3470   18.8042 C   0  0  0  0  0  0  0  0  0  0  0  0
   -5.7264   17.7814   18.5052 S   0  0  0  0  0  0  0  0  0  0  0  0
   -4.2074   17.2400   17.9064 C   0  0  0  0  0  0  0  0  0  0  0  0
  -11.7366   19.7531   28.8313 H   0  0  0  0  0  0  0  0  0  0  0  0
  -11.0504   20.1480   27.0057 H   0  0  0  0  0  0  0  0  0  0  0  0
   -8.7006   14.3038   30.0812 H   0  0  0  0  0  0  0  0  0  0  0  0
  -10.4444   14.1991   30.0935 H   0  0  0  0  0  0  0  0  0  0  0  0
  -11.3689   16.6234   29.9268 H   0  0  0  0  0  0  0  0  0  0  0  0
   -9.9705   18.4921   29.3366 H   0  0  0  0  0  0  0  0  0  0  0  0
  -10.9982   17.9861   26.4838 H   0  0  0  0  0  0  0  0  0  0  0  0
   -8.6767   18.1272   25.8726 H   0  0  0  0  0  0  0  0  0  0  0  0
   -8.0507   14.6588   25.6800 H   0  0  0  0  0  0  0  0  0  0  0  0
   -7.1582   16.1627   25.6248 H   0  0  0  0  0  0  0  0  0  0  0  0
  -11.7177   15.8022   27.0154 H   0  0  0  0  0  0  0  0  0  0  0  0
  -12.9170   16.6902   27.9296 H   0  0  0  0  0  0  0  0  0  0  0  0
  -11.5471   13.4206   27.2495 H   0  0  0  0  0  0  0  0  0  0  0  0
  -12.2146   11.3367   28.3898 H   0  0  0  0  0  0  0  0  0  0  0  0
  -13.6228   11.4254   30.4319 H   0  0  0  0  0  0  0  0  0  0  0  0
  -14.4011   13.6116   31.3119 H   0  0  0  0  0  0  0  0  0  0  0  0
  -13.7523   15.7076   30.1742 H   0  0  0  0  0  0  0  0  0  0  0  0
   -7.7416   17.8178   28.7516 H   0  0  0  0  0  0  0  0  0  0  0  0
   -7.9409   19.3876   28.0111 H   0  0  0  0  0  0  0  0  0  0  0  0
   -6.8511   19.6151   25.5361 H   0  0  0  0  0  0  0  0  0  0  0  0
   -4.6030   19.4889   24.5255 H   0  0  0  0  0  0  0  0  0  0  0  0
   -2.8505   18.0688   25.5603 H   0  0  0  0  0  0  0  0  0  0  0  0
   -3.3587   16.7583   27.6046 H   0  0  0  0  0  0  0  0  0  0  0  0
   -5.6035   16.8653   28.6237 H   0  0  0  0  0  0  0  0  0  0  0  0
  -11.0213   14.2611   32.3166 H   0  0  0  0  0  0  0  0  0  0  0  0
   -9.4601   17.3107   34.9389 H   0  0  0  0  0  0  0  0  0  0  0  0
   -8.1144   18.2249   33.0700 H   0  0  0  0  0  0  0  0  0  0  0  0
   -8.1801   17.1383   30.8550 H   0  0  0  0  0  0  0  0  0  0  0  0
  -10.8647   13.1900   34.1908 H   0  0  0  0  0  0  0  0  0  0  0  0
  -12.5491   10.2865   37.4298 H   0  0  0  0  0  0  0  0  0  0  0  0
  -13.4020   12.2929   38.9727 H   0  0  0  0  0  0  0  0  0  0  0  0
   -7.0069   16.5719   23.3957 H   0  0  0  0  0  0  0  0  0  0  0  0
  -10.5091   16.7559   20.8725 H   0  0  0  0  0  0  0  0  0  0  0  0
  -11.9057   16.0544   22.7997 H   0  0  0  0  0  0  0  0  0  0  0  0
  -10.8628   15.6012   24.9890 H   0  0  0  0  0  0  0  0  0  0  0  0
   -6.1831   16.0888   21.6196 H   0  0  0  0  0  0  0  0  0  0  0  0
   -2.7150   15.8390   18.6683 H   0  0  0  0  0  0  0  0  0  0  0  0
   -3.8161   17.5768   16.9710 H   0  0  0  0  0  0  0  0  0  0  0  0
  1  6  2  0  0  0  0
  2  9  1  0  0  0  0
  2 55  1  0  0  0  0
  3 10  1  0  0  0  0
  3 56  1  0  0  0  0
  4  6  1  0  0  0  0
  4  8  1  0  0  0  0
  4  7  1  0  0  0  0
  5  6  1  0  0  0  0
  5 11  1  0  0  0  0
  5 12  1  0  0  0  0
  7 27  1  0  0  0  0
  7 57  1  0  0  0  0
  7 58  1  0  0  0  0
  8  9  1  0  0  0  0
  8 13  1  0  0  0  0
  8 59  1  1  0  0  0
  9 10  1  0  0  0  0
  9 60  1  1  0  0  0
 10 11  1  0  0  0  0
 10 61  1  6  0  0  0
 11 20  1  0  0  0  0
 11 62  1  6  0  0  0
 12 41  1  0  0  0  0
 12 63  1  0  0  0  0
 12 64  1  0  0  0  0
 13 14  1  0  0  0  0
 13 65  1  0  0  0  0
 13 66  1  0  0  0  0
 14 19  2  0  0  0  0
 14 15  1  0  0  0  0
 15 16  2  0  0  0  0
 15 67  1  0  0  0  0
 16 17  1  0  0  0  0
 16 68  1  0  0  0  0
 17 18  2  0  0  0  0
 17 69  1  0  0  0  0
 18 19  1  0  0  0  0
 18 70  1  0  0  0  0
 19 71  1  0  0  0  0
 20 21  1  0  0  0  0
 20 72  1  0  0  0  0
 20 73  1  0  0  0  0
 21 26  2  0  0  0  0
 21 22  1  0  0  0  0
 22 23  2  0  0  0  0
 22 74  1  0  0  0  0
 23 24  1  0  0  0  0
 23 75  1  0  0  0  0
 24 25  2  0  0  0  0
 24 76  1  0  0  0  0
 25 26  1  0  0  0  0
 25 77  1  0  0  0  0
 26 78  1  0  0  0  0
 27 32  2  0  0  0  0
 27 28  1  0  0  0  0
 28 29  2  0  0  0  0
 28 79  1  0  0  0  0
 29 33  1  0  0  0  0
 29 30  1  0  0  0  0
 30 31  2  0  0  0  0
 30 80  1  0  0  0  0
 31 32  1  0  0  0  0
 31 81  1  0  0  0  0
 32 82  1  0  0  0  0
 33 35  1  0  0  0  0
 33 34  2  0  0  0  0
 35 37  1  0  0  0  0
 35 83  1  0  0  0  0
 36 37  2  0  0  0  0
 36 38  1  0  0  0  0
 37 39  1  0  0  0  0
 38 40  2  0  0  0  0
 38 84  1  0  0  0  0
 39 40  1  0  0  0  0
 40 85  1  0  0  0  0
 41 46  2  0  0  0  0
 41 42  1  0  0  0  0
 42 43  2  0  0  0  0
 42 86  1  0  0  0  0
 43 47  1  0  0  0  0
 43 44  1  0  0  0  0
 44 45  2  0  0  0  0
 44 87  1  0  0  0  0
 45 46  1  0  0  0  0
 45 88  1  0  0  0  0
 46 89  1  0  0  0  0
 47 49  1  0  0  0  0
 47 48  2  0  0  0  0
 49 51  1  0  0  0  0
 49 90  1  0  0  0  0
 50 51  2  0  0  0  0
 50 52  1  0  0  0  0
 51 53  1  0  0  0  0
 52 54  2  0  0  0  0
 52 91  1  0  0  0  0
 53 54  1  0  0  0  0
 54 92  1  0  0  0  0
M  END
$$$$
