XV6
 OpenBabel04041914053D

 92 98  0  0  1  0  0  0  0  0999 V2000
   -8.2518   14.1666   27.8852 O   0  0  0  0  0  0  0  0  0  0  0  0
  -11.7977   18.6768   28.7595 O   0  0  0  0  0  0  0  0  0  0  0  0
  -10.1465   19.5570   26.8236 O   0  0  0  0  0  0  0  0  0  0  0  0
   -9.5250   15.6893   28.9823 N   0  0  0  0  0  0  0  0  0  0  0  0
   -8.7681   16.0694   26.7576 N   0  0  0  0  0  0  0  0  0  0  0  0
   -8.8232   15.2597   27.8746 C   0  0  0  0  0  0  0  0  0  0  0  0
   -9.3537   14.8400   30.1648 C   0  0  0  0  0  0  0  0  0  0  0  0
  -10.7981   16.4526   28.9074 C   0  0  1  0  0  0  0  0  0  0  0  0
  -10.5895   17.9280   28.5314 C   0  0  1  0  0  0  0  0  0  0  0  0
  -10.1612   18.1380   27.0854 C   0  0  2  0  0  0  0  0  0  0  0  0
   -8.7708   17.5556   26.7876 C   0  0  1  0  0  0  0  0  0  0  0  0
   -8.1214   15.4471   25.5979 C   0  0  0  0  0  0  0  0  0  0  0  0
  -11.9062   15.7332   28.0896 C   0  0  0  0  0  0  0  0  0  0  0  0
  -12.4688   14.5310   28.8228 C   0  0  0  0  0  0  0  0  0  0  0  0
  -12.1071   13.2291   28.4504 C   0  0  0  0  0  0  0  0  0  0  0  0
  -12.5426   12.1344   29.2004 C   0  0  0  0  0  0  0  0  0  0  0  0
  -13.3500   12.3283   30.3203 C   0  0  0  0  0  0  0  0  0  0  0  0
  -13.7315   13.6167   30.6879 C   0  0  0  0  0  0  0  0  0  0  0  0
  -13.2971   14.7126   29.9413 C   0  0  0  0  0  0  0  0  0  0  0  0
   -7.6706   18.1930   27.6779 C   0  0  0  0  0  0  0  0  0  0  0  0
   -6.2588   17.9405   27.2134 C   0  0  0  0  0  0  0  0  0  0  0  0
   -5.4527   17.0182   27.8923 C   0  0  0  0  0  0  0  0  0  0  0  0
   -4.1530   16.7659   27.4583 C   0  0  0  0  0  0  0  0  0  0  0  0
   -3.6480   17.4326   26.3436 C   0  0  0  0  0  0  0  0  0  0  0  0
   -4.4377   18.3626   25.6692 C   0  0  0  0  0  0  0  0  0  0  0  0
   -5.7376   18.6207   26.1042 C   0  0  0  0  0  0  0  0  0  0  0  0
   -9.3107   15.6083   31.4584 C   0  0  0  0  0  0  0  0  0  0  0  0
  -10.0210   15.1266   32.5645 C   0  0  0  0  0  0  0  0  0  0  0  0
   -9.9432   15.7847   33.7950 C   0  0  0  0  0  0  0  0  0  0  0  0
   -9.1720   16.9512   33.9022 C   0  0  0  0  0  0  0  0  0  0  0  0
   -8.4701   17.4398   32.8010 C   0  0  0  0  0  0  0  0  0  0  0  0
   -8.5261   16.7610   31.5899 C   0  0  0  0  0  0  0  0  0  0  0  0
  -10.6717   15.2835   35.0054 C   0  0  0  0  0  0  0  0  0  0  0  0
  -10.9104   16.0863   35.8976 O   0  0  0  0  0  0  0  0  0  0  0  0
  -10.9561   13.9373   35.0005 N   0  0  0  0  0  0  0  0  0  0  0  0
  -11.6061   11.9109   35.9603 N   0  0  0  0  0  0  0  0  0  0  0  0
  -11.5701   13.2245   35.9985 C   0  0  0  0  0  0  0  0  0  0  0  0
  -12.2581   11.4362   37.0816 C   0  0  0  0  0  0  0  0  0  0  0  0
  -12.3567   13.9523   37.3217 S   0  0  0  0  0  0  0  0  0  0  0  0
  -12.7563   12.4013   37.9283 C   0  0  0  0  0  0  0  0  0  0  0  0
   -8.7862   15.7795   24.2868 C   0  0  0  0  0  0  0  0  0  0  0  0
   -7.9861   16.1353   23.1925 C   0  0  0  0  0  0  0  0  0  0  0  0
   -8.5751   16.4483   21.9657 C   0  0  0  0  0  0  0  0  0  0  0  0
   -9.9729   16.4259   21.8442 C   0  0  0  0  0  0  0  0  0  0  0  0
  -10.7714   16.0481   22.9205 C   0  0  0  0  0  0  0  0  0  0  0  0
  -10.1790   15.7080   24.1314 C   0  0  0  0  0  0  0  0  0  0  0  0
   -7.7688   16.8650   20.7913 C   0  0  0  0  0  0  0  0  0  0  0  0
   -8.3204   17.6046   19.9762 O   0  0  0  0  0  0  0  0  0  0  0  0
   -6.4870   16.3685   20.7191 N   0  0  0  0  0  0  0  0  0  0  0  0
   -4.3908   16.0498   19.7206 N   0  0  0  0  0  0  0  0  0  0  0  0
   -5.5815   16.6059   19.7150 C   0  0  0  0  0  0  0  0  0  0  0  0
   -3.7022   16.4272   18.5803 C   0  0  0  0  0  0  0  0  0  0  0  0
   -5.9182   17.6202   18.3855 S   0  0  0  0  0  0  0  0  0  0  0  0
   -4.3814   17.2703   17.7288 C   0  0  0  0  0  0  0  0  0  0  0  0
  -11.5170   19.6082   28.8456 H   0  0  0  0  0  0  0  0  0  0  0  0
  -11.0799   19.8339   26.7674 H   0  0  0  0  0  0  0  0  0  0  0  0
   -8.4221   14.2636   30.1169 H   0  0  0  0  0  0  0  0  0  0  0  0
  -10.1628   14.1050   30.1774 H   0  0  0  0  0  0  0  0  0  0  0  0
  -11.1837   16.5133   29.9335 H   0  0  0  0  0  0  0  0  0  0  0  0
   -9.8532   18.3652   29.2154 H   0  0  0  0  0  0  0  0  0  0  0  0
  -10.9021   17.7161   26.3989 H   0  0  0  0  0  0  0  0  0  0  0  0
   -8.5466   17.8932   25.7676 H   0  0  0  0  0  0  0  0  0  0  0  0
   -8.1142   14.3520   25.6691 H   0  0  0  0  0  0  0  0  0  0  0  0
   -7.0745   15.7645   25.5969 H   0  0  0  0  0  0  0  0  0  0  0  0
  -11.5320   15.4188   27.1110 H   0  0  0  0  0  0  0  0  0  0  0  0
  -12.7412   16.4156   27.8872 H   0  0  0  0  0  0  0  0  0  0  0  0
  -11.4513   13.0592   27.5987 H   0  0  0  0  0  0  0  0  0  0  0  0
  -12.2392   11.1292   28.9182 H   0  0  0  0  0  0  0  0  0  0  0  0
  -13.6820   11.4750   30.9064 H   0  0  0  0  0  0  0  0  0  0  0  0
  -14.3619   13.7694   31.5604 H   0  0  0  0  0  0  0  0  0  0  0  0
  -13.5903   15.7142   30.2511 H   0  0  0  0  0  0  0  0  0  0  0  0
   -7.7631   17.8512   28.7099 H   0  0  0  0  0  0  0  0  0  0  0  0
   -7.8065   19.2814   27.7186 H   0  0  0  0  0  0  0  0  0  0  0  0
   -5.8350   16.4852   28.7604 H   0  0  0  0  0  0  0  0  0  0  0  0
   -3.5364   16.0464   27.9905 H   0  0  0  0  0  0  0  0  0  0  0  0
   -2.6359   17.2300   26.0042 H   0  0  0  0  0  0  0  0  0  0  0  0
   -4.0382   18.8899   24.8066 H   0  0  0  0  0  0  0  0  0  0  0  0
   -6.3393   19.3579   25.5759 H   0  0  0  0  0  0  0  0  0  0  0  0
  -10.6436   14.2453   32.4330 H   0  0  0  0  0  0  0  0  0  0  0  0
   -9.1080   17.4821   34.8498 H   0  0  0  0  0  0  0  0  0  0  0  0
   -7.8710   18.3448   32.8858 H   0  0  0  0  0  0  0  0  0  0  0  0
   -7.9603   17.1357   30.7428 H   0  0  0  0  0  0  0  0  0  0  0  0
  -10.5918   13.3320   34.2824 H   0  0  0  0  0  0  0  0  0  0  0  0
  -12.3477   10.3671   37.2317 H   0  0  0  0  0  0  0  0  0  0  0  0
  -13.3105   12.2767   38.8469 H   0  0  0  0  0  0  0  0  0  0  0  0
   -6.9107   16.1974   23.3309 H   0  0  0  0  0  0  0  0  0  0  0  0
  -10.4436   16.7006   20.9009 H   0  0  0  0  0  0  0  0  0  0  0  0
  -11.8547   16.0231   22.8145 H   0  0  0  0  0  0  0  0  0  0  0  0
  -10.8085   15.3996   24.9616 H   0  0  0  0  0  0  0  0  0  0  0  0
   -6.1437   15.7105   21.4059 H   0  0  0  0  0  0  0  0  0  0  0  0
   -2.7003   16.0518   18.4123 H   0  0  0  0  0  0  0  0  0  0  0  0
   -4.0630   17.6880   16.7852 H   0  0  0  0  0  0  0  0  0  0  0  0
  1  6  2  0  0  0  0
  2  9  1  0  0  0  0
  2 55  1  0  0  0  0
  3 10  1  0  0  0  0
  3 56  1  0  0  0  0
  4  6  1  0  0  0  0
  4  8  1  0  0  0  0
  4  7  1  0  0  0  0
  5  6  1  0  0  0  0
  5 11  1  0  0  0  0
  5 12  1  0  0  0  0
  7 27  1  0  0  0  0
  7 57  1  0  0  0  0
  7 58  1  0  0  0  0
  8  9  1  0  0  0  0
  8 13  1  0  0  0  0
  8 59  1  1  0  0  0
  9 10  1  0  0  0  0
  9 60  1  1  0  0  0
 10 11  1  0  0  0  0
 10 61  1  6  0  0  0
 11 20  1  0  0  0  0
 11 62  1  6  0  0  0
 12 41  1  0  0  0  0
 12 63  1  0  0  0  0
 12 64  1  0  0  0  0
 13 14  1  0  0  0  0
 13 65  1  0  0  0  0
 13 66  1  0  0  0  0
 14 19  2  0  0  0  0
 14 15  1  0  0  0  0
 15 16  2  0  0  0  0
 15 67  1  0  0  0  0
 16 17  1  0  0  0  0
 16 68  1  0  0  0  0
 17 18  2  0  0  0  0
 17 69  1  0  0  0  0
 18 19  1  0  0  0  0
 18 70  1  0  0  0  0
 19 71  1  0  0  0  0
 20 21  1  0  0  0  0
 20 72  1  0  0  0  0
 20 73  1  0  0  0  0
 21 26  2  0  0  0  0
 21 22  1  0  0  0  0
 22 23  2  0  0  0  0
 22 74  1  0  0  0  0
 23 24  1  0  0  0  0
 23 75  1  0  0  0  0
 24 25  2  0  0  0  0
 24 76  1  0  0  0  0
 25 26  1  0  0  0  0
 25 77  1  0  0  0  0
 26 78  1  0  0  0  0
 27 32  2  0  0  0  0
 27 28  1  0  0  0  0
 28 29  2  0  0  0  0
 28 79  1  0  0  0  0
 29 33  1  0  0  0  0
 29 30  1  0  0  0  0
 30 31  2  0  0  0  0
 30 80  1  0  0  0  0
 31 32  1  0  0  0  0
 31 81  1  0  0  0  0
 32 82  1  0  0  0  0
 33 35  1  0  0  0  0
 33 34  2  0  0  0  0
 35 37  1  0  0  0  0
 35 83  1  0  0  0  0
 36 37  2  0  0  0  0
 36 38  1  0  0  0  0
 37 39  1  0  0  0  0
 38 40  2  0  0  0  0
 38 84  1  0  0  0  0
 39 40  1  0  0  0  0
 40 85  1  0  0  0  0
 41 46  2  0  0  0  0
 41 42  1  0  0  0  0
 42 43  2  0  0  0  0
 42 86  1  0  0  0  0
 43 47  1  0  0  0  0
 43 44  1  0  0  0  0
 44 45  2  0  0  0  0
 44 87  1  0  0  0  0
 45 46  1  0  0  0  0
 45 88  1  0  0  0  0
 46 89  1  0  0  0  0
 47 49  1  0  0  0  0
 47 48  2  0  0  0  0
 49 51  1  0  0  0  0
 49 90  1  0  0  0  0
 50 51  2  0  0  0  0
 50 52  1  0  0  0  0
 51 53  1  0  0  0  0
 52 54  2  0  0  0  0
 52 91  1  0  0  0  0
 53 54  1  0  0  0  0
 54 92  1  0  0  0  0
M  END
$$$$
