Y27
 OpenBabel04041916323D

 40 41  0  0  1  0  0  0  0  0999 V2000
    7.6228    9.6802    1.6554 O   0  0  0  0  0  0  0  0  0  0  0  0
    7.9680    9.5091    2.8228 C   0  0  0  0  0  0  0  0  0  0  0  0
    9.3789    9.0202    3.1599 C   0  0  1  0  0  0  0  0  0  0  0  0
    9.7683    7.9146    2.1741 C   0  0  0  0  0  0  0  0  0  0  0  0
   11.1593    7.3908    2.4886 C   0  0  0  0  0  0  0  0  0  0  0  0
   12.1923    8.5158    2.2959 C   0  0  1  0  0  0  0  0  0  0  0  0
   11.8596    9.6599    3.2782 C   0  0  0  0  0  0  0  0  0  0  0  0
   10.4089   10.1584    3.1402 C   0  0  0  0  0  0  0  0  0  0  0  0
   13.6166    7.9184    2.3895 C   0  0  1  0  0  0  0  0  0  0  0  0
   14.0207    7.2364    1.0808 C   0  0  0  0  0  0  0  0  0  0  0  0
   14.6298    8.9735    2.6687 N   0  3  0  0  0  0  0  0  0  0  0  0
    7.1805    9.6766    3.9484 N   0  0  0  0  0  0  0  0  0  0  0  0
    5.7722    9.7773    3.9911 C   0  0  0  0  0  0  0  0  0  0  0  0
    5.1696    9.7370    5.2513 C   0  0  0  0  0  0  0  0  0  0  0  0
    3.7855    9.7715    5.3287 C   0  0  0  0  0  0  0  0  0  0  0  0
    2.9802    9.8565    4.2529 N   0  0  0  0  0  0  0  0  0  0  0  0
    3.5838    9.9014    3.0476 C   0  0  0  0  0  0  0  0  0  0  0  0
    4.9587    9.8597    2.8667 C   0  0  0  0  0  0  0  0  0  0  0  0
    9.3676    8.5807    4.1670 H   0  0  0  0  0  0  0  0  0  0  0  0
    9.7525    8.2915    1.1426 H   0  0  0  0  0  0  0  0  0  0  0  0
    9.0413    7.0954    2.2174 H   0  0  0  0  0  0  0  0  0  0  0  0
   11.3731    6.5319    1.8460 H   0  0  0  0  0  0  0  0  0  0  0  0
   11.1923    7.0253    3.5248 H   0  0  0  0  0  0  0  0  0  0  0  0
   12.0697    8.9241    1.2828 H   0  0  0  0  0  0  0  0  0  0  0  0
   12.5257   10.5129    3.1010 H   0  0  0  0  0  0  0  0  0  0  0  0
   12.0343    9.3255    4.3098 H   0  0  0  0  0  0  0  0  0  0  0  0
   10.1898   10.8690    3.9489 H   0  0  0  0  0  0  0  0  0  0  0  0
   10.3153   10.7236    2.2068 H   0  0  0  0  0  0  0  0  0  0  0  0
   13.6929    7.2078    3.2224 H   0  0  0  0  0  0  0  0  0  0  0  0
   15.0364    6.8312    1.1389 H   0  0  0  0  0  0  0  0  0  0  0  0
   13.9918    7.9429    0.2422 H   0  0  0  0  0  0  0  0  0  0  0  0
   13.3508    6.4069    0.8357 H   0  0  0  0  0  0  0  0  0  0  0  0
   15.5784    8.5730    2.6960 H   0  0  0  0  0  0  0  0  0  0  0  0
   14.6290    9.7055    1.9469 H   0  0  0  0  0  0  0  0  0  0  0  0
    7.6432    9.6343    4.8467 H   0  0  0  0  0  0  0  0  0  0  0  0
    5.7447    9.6506    6.1651 H   0  0  0  0  0  0  0  0  0  0  0  0
    3.2739    9.7199    6.2861 H   0  0  0  0  0  0  0  0  0  0  0  0
    2.9109    9.9687    2.1966 H   0  0  0  0  0  0  0  0  0  0  0  0
    5.3476    9.8908    1.8567 H   0  0  0  0  0  0  0  0  0  0  0  0
   14.4751    9.4204    3.5761 H   0  0  0  0  0  0  0  0  0  0  0  0
  1  2  2  0  0  0  0
  2  3  1  0  0  0  0
  2 12  1  0  0  0  0
  3  4  1  0  0  0  0
  3  8  1  0  0  0  0
  3 19  1  1  0  0  0
  4  5  1  0  0  0  0
  4 20  1  0  0  0  0
  4 21  1  0  0  0  0
  5  6  1  0  0  0  0
  5 22  1  0  0  0  0
  5 23  1  0  0  0  0
  6  7  1  0  0  0  0
  6  9  1  0  0  0  0
  6 24  1  6  0  0  0
  7  8  1  0  0  0  0
  7 25  1  0  0  0  0
  7 26  1  0  0  0  0
  8 27  1  0  0  0  0
  8 28  1  0  0  0  0
  9 10  1  0  0  0  0
  9 11  1  0  0  0  0
  9 29  1  1  0  0  0
 10 30  1  0  0  0  0
 10 31  1  0  0  0  0
 10 32  1  0  0  0  0
 11 33  1  0  0  0  0
 11 34  1  0  0  0  0
 11 40  1  0  0  0  0
 12 13  1  0  0  0  0
 12 35  1  0  0  0  0
 13 14  2  0  0  0  0
 13 18  1  0  0  0  0
 14 15  1  0  0  0  0
 14 36  1  0  0  0  0
 15 16  2  0  0  0  0
 15 37  1  0  0  0  0
 16 17  1  0  0  0  0
 17 18  2  0  0  0  0
 17 38  1  0  0  0  0
 18 39  1  0  0  0  0
M  CHG  1  11   1
M  END
$$$$
