Z34
 OpenBabel04041914393D

 64 67  0  0  0  0  0  0  0  0999 V2000
    5.1792    9.4658   22.6824 C   0  0  0  0  0  0  0  0  0  0  0  0
    4.7313    8.9792   21.4496 C   0  0  0  0  0  0  0  0  0  0  0  0
    5.4268    7.9011   20.8709 C   0  0  0  0  0  0  0  0  0  0  0  0
    6.5189    7.3451   21.5338 C   0  0  0  0  0  0  0  0  0  0  0  0
    6.9088    7.8638   22.7055 N   0  3  0  0  0  0  0  0  0  0  0  0
    6.2864    8.8960   23.2978 C   0  0  0  0  0  0  0  0  0  0  0  0
    8.7079   10.6190   23.0741 O   0  0  0  0  0  0  0  0  0  0  0  0
    6.6704    9.3923   24.5313 O   0  0  0  0  0  0  0  0  0  0  0  0
    7.9927    9.2967   24.8798 C   0  0  0  0  0  0  0  0  0  0  0  0
    8.2817    8.5667   26.0223 C   0  0  0  0  0  0  0  0  0  0  0  0
    9.5850    8.4878   26.5287 C   0  0  0  0  0  0  0  0  0  0  0  0
   10.6156    9.1715   25.8456 C   0  0  0  0  0  0  0  0  0  0  0  0
   10.3289    9.9037   24.6820 C   0  0  0  0  0  0  0  0  0  0  0  0
    9.0184    9.9483   24.2127 C   0  0  0  0  0  0  0  0  0  0  0  0
    9.8397    7.6954   27.7544 C   0  0  0  0  0  0  0  0  0  0  0  0
    8.8470    7.1491   28.4168 N   0  0  0  0  0  0  0  0  0  0  0  0
   11.0656    7.5006   28.1930 N   0  0  0  0  0  0  0  0  0  0  0  0
    7.3438    6.4262   20.9181 O   0  0  0  0  0  0  0  0  0  0  0  0
    6.8769    5.1462   20.6974 C   0  0  0  0  0  0  0  0  0  0  0  0
    5.9875    4.4795   21.5405 C   0  0  0  0  0  0  0  0  0  0  0  0
    5.6457    3.1463   21.2907 C   0  0  0  0  0  0  0  0  0  0  0  0
    6.1978    2.4699   20.2057 C   0  0  0  0  0  0  0  0  0  0  0  0
    7.0985    3.1193   19.3605 C   0  0  0  0  0  0  0  0  0  0  0  0
    7.4369    4.4565   19.6094 C   0  0  0  0  0  0  0  0  0  0  0  0
    7.6148    2.4447   18.1707 C   0  0  0  0  0  0  0  0  0  0  0  0
    8.6954    1.7092   18.0973 N   0  0  0  0  0  0  0  0  0  0  0  0
    9.6451    1.3576   19.1570 C   0  0  0  0  0  0  0  0  0  0  0  0
    6.9922    2.5515   17.0122 N   0  0  0  0  0  0  0  0  0  0  0  0
    8.8870    1.2002   16.7291 C   0  0  0  0  0  0  0  0  0  0  0  0
    7.6936    1.7983   15.9798 C   0  0  0  0  0  0  0  0  0  0  0  0
    3.6571    9.5422   20.8011 N   0  0  0  0  0  0  0  0  0  0  0  0
    2.2855    9.1466   21.1876 C   0  0  0  0  0  0  0  0  0  0  0  0
    1.9135    9.2181   22.6944 C   0  0  0  0  0  0  0  0  0  0  0  0
    1.3695   10.2829   23.0803 O   0  0  0  0  0  0  0  0  0  0  0  0
    2.2518    8.1900   23.3641 O   0  0  0  0  0  0  0  0  0  0  0  0
    3.8530   10.5396   19.7719 C   0  0  0  0  0  0  0  0  0  0  0  0
    4.5799   10.5114   23.2656 F   0  0  0  0  0  0  0  0  0  0  0  0
    5.0848    7.4360   19.6709 F   0  0  0  0  0  0  0  0  0  0  0  0
    9.3552   10.3853   22.3870 H   0  0  0  0  0  0  0  0  0  0  0  0
    7.4449    8.0794   26.5127 H   0  0  0  0  0  0  0  0  0  0  0  0
   11.6405    9.1763   26.1978 H   0  0  0  0  0  0  0  0  0  0  0  0
   11.1291   10.4487   24.1857 H   0  0  0  0  0  0  0  0  0  0  0  0
    9.0154    6.6196   29.2721 H   0  0  0  0  0  0  0  0  0  0  0  0
    7.8707    7.2665   28.1838 H   0  0  0  0  0  0  0  0  0  0  0  0
   11.2445    6.9586   29.0194 H   0  0  0  0  0  0  0  0  0  0  0  0
    5.5508    4.9722   22.4056 H   0  0  0  0  0  0  0  0  0  0  0  0
    4.9314    2.6395   21.9458 H   0  0  0  0  0  0  0  0  0  0  0  0
    5.8921    1.4361   20.0087 H   0  0  0  0  0  0  0  0  0  0  0  0
    8.1297    4.9688   18.9400 H   0  0  0  0  0  0  0  0  0  0  0  0
   10.4315    0.7185   18.7445 H   0  0  0  0  0  0  0  0  0  0  0  0
    9.1274    0.8129   19.9498 H   0  0  0  0  0  0  0  0  0  0  0  0
   10.1053    2.2674   19.5520 H   0  0  0  0  0  0  0  0  0  0  0  0
    8.8587    0.1087   16.7385 H   0  0  0  0  0  0  0  0  0  0  0  0
    9.8399    1.5631   16.3357 H   0  0  0  0  0  0  0  0  0  0  0  0
    7.0301    1.0239   15.5834 H   0  0  0  0  0  0  0  0  0  0  0  0
    8.0113    2.4826   15.1867 H   0  0  0  0  0  0  0  0  0  0  0  0
    2.1377    8.1109   20.8556 H   0  0  0  0  0  0  0  0  0  0  0  0
    1.5670    9.7500   20.6205 H   0  0  0  0  0  0  0  0  0  0  0  0
    4.9184   10.7430   19.6100 H   0  0  0  0  0  0  0  0  0  0  0  0
    3.3686   11.4820   20.0443 H   0  0  0  0  0  0  0  0  0  0  0  0
    3.4348   10.1891   18.8226 H   0  0  0  0  0  0  0  0  0  0  0  0
    7.7142    7.4570   23.1560 H   0  0  0  0  0  0  0  0  0  0  0  0
   11.8661    7.8890   27.7362 H   0  0  0  0  0  0  0  0  0  0  0  0
    6.1360    3.0935   16.9177 H   0  0  0  0  0  0  0  0  0  0  0  0
  1  6  2  0  0  0  0
  1  2  1  0  0  0  0
  1 37  1  0  0  0  0
  2 31  1  0  0  0  0
  2  3  2  0  0  0  0
  3  4  1  0  0  0  0
  3 38  1  0  0  0  0
  4 18  1  0  0  0  0
  4  5  2  0  0  0  0
  5  6  1  0  0  0  0
  5 62  1  0  0  0  0
  6  8  1  0  0  0  0
  7 14  1  0  0  0  0
  7 39  1  0  0  0  0
  8  9  1  0  0  0  0
  9 14  2  0  0  0  0
  9 10  1  0  0  0  0
 10 11  2  0  0  0  0
 10 40  1  0  0  0  0
 11 15  1  0  0  0  0
 11 12  1  0  0  0  0
 12 13  2  0  0  0  0
 12 41  1  0  0  0  0
 13 14  1  0  0  0  0
 13 42  1  0  0  0  0
 15 17  2  0  0  0  0
 15 16  1  0  0  0  0
 16 43  1  0  0  0  0
 16 44  1  0  0  0  0
 17 45  1  0  0  0  0
 17 63  1  0  0  0  0
 18 19  1  0  0  0  0
 19 24  2  0  0  0  0
 19 20  1  0  0  0  0
 20 21  2  0  0  0  0
 20 46  1  0  0  0  0
 21 22  1  0  0  0  0
 21 47  1  0  0  0  0
 22 23  2  0  0  0  0
 22 48  1  0  0  0  0
 23 25  1  0  0  0  0
 23 24  1  0  0  0  0
 24 49  1  0  0  0  0
 25 28  2  0  0  0  0
 25 26  1  0  0  0  0
 26 29  1  0  0  0  0
 26 27  1  0  0  0  0
 27 50  1  0  0  0  0
 27 51  1  0  0  0  0
 27 52  1  0  0  0  0
 28 30  1  0  0  0  0
 28 64  1  0  0  0  0
 29 30  1  0  0  0  0
 29 53  1  0  0  0  0
 29 54  1  0  0  0  0
 30 55  1  0  0  0  0
 30 56  1  0  0  0  0
 31 36  1  0  0  0  0
 31 32  1  0  0  0  0
 32 33  1  0  0  0  0
 32 57  1  0  0  0  0
 32 58  1  0  0  0  0
 33 35  2  0  0  0  0
 33 34  1  0  0  0  0
 36 59  1  0  0  0  0
 36 60  1  0  0  0  0
 36 61  1  0  0  0  0
M  CHG  1   5   1
M  END
$$$$
