ZEB
 OpenBabel04041914143D

 31 32  0  0  1  0  0  0  0  0999 V2000
   35.2595   49.0616    8.6392 N   0  0  0  0  0  0  0  0  0  0  0  0
   36.1408   48.2211    7.9603 C   0  0  0  0  0  0  0  0  0  0  0  0
   37.3572   48.3683    7.9182 O   0  0  0  0  0  0  0  0  0  0  0  0
   35.6123   47.1971    7.2483 N   0  0  0  0  0  0  0  0  0  0  0  0
   34.2860   46.7121    7.3531 C   0  0  2  0  0  0  0  0  0  0  0  0
   33.7412   46.6803    6.0533 O   0  0  0  0  0  0  0  0  0  0  0  0
   33.4440   47.5823    8.1938 C   0  0  0  0  0  0  0  0  0  0  0  0
   33.9225   48.6803    8.7726 C   0  0  0  0  0  0  0  0  0  0  0  0
   35.9073   50.1833    9.3584 C   0  0  1  0  0  0  0  0  0  0  0  0
   35.6659   51.6543    8.9336 C   0  0  2  0  0  0  0  0  0  0  0  0
   36.4902   52.0978    7.8460 O   0  0  0  0  0  0  0  0  0  0  0  0
   36.0329   52.3850   10.2418 C   0  0  2  0  0  0  0  0  0  0  0  0
   37.4515   52.6143   10.3358 O   0  0  0  0  0  0  0  0  0  0  0  0
   35.6254   51.3886   11.3331 C   0  0  2  0  0  0  0  0  0  0  0  0
   35.6702   50.0594   10.7682 O   0  0  0  0  0  0  0  0  0  0  0  0
   34.2007   51.5764   11.8262 C   0  0  0  0  0  0  0  0  0  0  0  0
   33.3550   51.9178   10.7259 O   0  0  0  0  0  0  0  0  0  0  0  0
   36.3258   46.6164    6.8360 H   0  0  0  0  0  0  0  0  0  0  0  0
   34.3191   45.6870    7.7454 H   0  0  0  0  0  0  0  0  0  0  0  0
   34.3149   46.1032    5.5290 H   0  0  0  0  0  0  0  0  0  0  0  0
   32.4090   47.2805    8.3263 H   0  0  0  0  0  0  0  0  0  0  0  0
   33.2920   49.3069    9.4314 H   0  0  0  0  0  0  0  0  0  0  0  0
   36.9862   50.0647    9.2448 H   0  0  0  0  0  0  0  0  0  0  0  0
   34.6322   51.8690    8.6466 H   0  0  0  0  0  0  0  0  0  0  0  0
   36.4166   51.4422    7.1319 H   0  0  0  0  0  0  0  0  0  0  0  0
   35.5510   53.3641   10.3378 H   0  0  0  0  0  0  0  0  0  0  0  0
   37.6354   53.0284   11.1960 H   0  0  0  0  0  0  0  0  0  0  0  0
   36.3139   51.4022   12.1843 H   0  0  0  0  0  0  0  0  0  0  0  0
   34.1488   52.3806   12.5658 H   0  0  0  0  0  0  0  0  0  0  0  0
   33.8212   50.6488   12.2643 H   0  0  0  0  0  0  0  0  0  0  0  0
   32.4603   52.0514   11.0837 H   0  0  0  0  0  0  0  0  0  0  0  0
  1  9  1  0  0  0  0
  1  8  1  0  0  0  0
  1  2  1  0  0  0  0
  2  4  1  0  0  0  0
  2  3  2  0  0  0  0
  4  5  1  0  0  0  0
  4 18  1  0  0  0  0
  5  7  1  0  0  0  0
  5  6  1  0  0  0  0
  5 19  1  1  0  0  0
  6 20  1  0  0  0  0
  7  8  2  0  0  0  0
  7 21  1  0  0  0  0
  8 22  1  0  0  0  0
  9 15  1  0  0  0  0
  9 10  1  0  0  0  0
  9 23  1  6  0  0  0
 10 12  1  0  0  0  0
 10 11  1  0  0  0  0
 10 24  1  6  0  0  0
 11 25  1  0  0  0  0
 12 14  1  0  0  0  0
 12 13  1  0  0  0  0
 12 26  1  1  0  0  0
 13 27  1  0  0  0  0
 14 16  1  0  0  0  0
 14 15  1  0  0  0  0
 14 28  1  1  0  0  0
 16 17  1  0  0  0  0
 16 29  1  0  0  0  0
 16 30  1  0  0  0  0
 17 31  1  0  0  0  0
M  END
$$$$
