ZEN
 OpenBabel04041916393D

 62 66  0  0  0  0  0  0  0  0999 V2000
   18.5328    7.5439   11.0139 N   0  3  0  0  0  0  0  0  0  0  0  0
   19.1317    6.3501   11.0842 C   0  0  0  0  0  0  0  0  0  0  0  0
   20.3560    6.2257   11.7297 C   0  0  0  0  0  0  0  0  0  0  0  0
   20.3036    8.5472   12.2078 C   0  0  0  0  0  0  0  0  0  0  0  0
   19.0860    8.6404   11.5534 C   0  0  0  0  0  0  0  0  0  0  0  0
   20.9769    7.3240   12.3402 C   0  0  0  0  0  0  0  0  0  0  0  0
   22.2065    7.2206   12.9803 N   0  0  0  0  0  0  0  0  0  0  0  0
   22.7216    5.9078   13.4031 C   0  0  0  0  0  0  0  0  0  0  0  0
   24.2404    5.9049   13.3482 C   0  0  0  0  0  0  0  0  0  0  0  0
   24.1831    8.4018   13.8212 C   0  0  0  0  0  0  0  0  0  0  0  0
   22.6687    8.2847   13.8856 C   0  0  0  0  0  0  0  0  0  0  0  0
   24.8816    7.0679   14.1188 C   0  0  0  0  0  0  0  0  0  0  0  0
   26.3278    7.1902   13.6630 C   0  0  0  0  0  0  0  0  0  0  0  0
   26.5510    7.1821   12.4345 O   0  0  0  0  0  0  0  0  0  0  0  0
   27.3519    7.3755   14.5368 N   0  0  0  0  0  0  0  0  0  0  0  0
   27.2545    7.4752   15.9936 C   0  0  0  0  0  0  0  0  0  0  0  0
   27.9797    8.7254   16.5181 C   0  0  0  0  0  0  0  0  0  0  0  0
   29.3240    8.8369   14.4586 C   0  0  0  0  0  0  0  0  0  0  0  0
   28.7053    7.5218   13.9832 C   0  0  0  0  0  0  0  0  0  0  0  0
   29.3417    8.8398   15.9409 N   0  0  0  0  0  0  0  0  0  0  0  0
   30.3105   10.0444   16.6149 S   0  0  0  0  0  0  0  0  0  0  0  0
   31.5089   10.1482   15.8037 O   0  0  0  0  0  0  0  0  0  0  0  0
   30.3657    9.8028   18.0433 O   0  0  0  0  0  0  0  0  0  0  0  0
   29.3456   11.5189   16.3532 C   0  0  0  0  0  0  0  0  0  0  0  0
   29.4884   12.2338   15.1634 C   0  0  0  0  0  0  0  0  0  0  0  0
   28.4857   11.9590   17.3620 C   0  0  0  0  0  0  0  0  0  0  0  0
   27.7570   13.1317   17.1822 C   0  0  0  0  0  0  0  0  0  0  0  0
   28.7594   13.4104   14.9789 C   0  0  0  0  0  0  0  0  0  0  0  0
   27.8870   13.8647   15.9987 C   0  0  0  0  0  0  0  0  0  0  0  0
   27.1607   15.0426   15.8106 C   0  0  0  0  0  0  0  0  0  0  0  0
   28.1513   15.3180   13.6183 C   0  0  0  0  0  0  0  0  0  0  0  0
   28.8838   14.1436   13.7949 C   0  0  0  0  0  0  0  0  0  0  0  0
   27.2948   15.7602   14.6244 C   0  0  0  0  0  0  0  0  0  0  0  0
   26.3808   17.1980   14.3988 Cl  0  0  0  0  0  0  0  0  0  0  0  0
   18.6296    5.5020   10.6291 H   0  0  0  0  0  0  0  0  0  0  0  0
   20.7994    5.2372   11.7338 H   0  0  0  0  0  0  0  0  0  0  0  0
   20.7016    9.4720   12.6086 H   0  0  0  0  0  0  0  0  0  0  0  0
   18.5477    9.5796   11.4602 H   0  0  0  0  0  0  0  0  0  0  0  0
   22.3827    5.0877   12.7722 H   0  0  0  0  0  0  0  0  0  0  0  0
   22.3728    5.6947   14.4193 H   0  0  0  0  0  0  0  0  0  0  0  0
   24.5411    5.9325   12.2917 H   0  0  0  0  0  0  0  0  0  0  0  0
   24.6147    4.9523   13.7438 H   0  0  0  0  0  0  0  0  0  0  0  0
   24.4645    8.7603   12.8218 H   0  0  0  0  0  0  0  0  0  0  0  0
   24.5145    9.1703   14.5273 H   0  0  0  0  0  0  0  0  0  0  0  0
   22.3432    8.0538   14.9060 H   0  0  0  0  0  0  0  0  0  0  0  0
   22.2672    9.2659   13.6390 H   0  0  0  0  0  0  0  0  0  0  0  0
   24.8082    6.8429   15.1896 H   0  0  0  0  0  0  0  0  0  0  0  0
   27.7002    6.5718   16.4210 H   0  0  0  0  0  0  0  0  0  0  0  0
   26.2211    7.5322   16.3184 H   0  0  0  0  0  0  0  0  0  0  0  0
   28.0294    8.6844   17.6109 H   0  0  0  0  0  0  0  0  0  0  0  0
   27.4030    9.6068   16.2190 H   0  0  0  0  0  0  0  0  0  0  0  0
   30.3369    8.9269   14.0551 H   0  0  0  0  0  0  0  0  0  0  0  0
   28.7220    9.6802   14.1077 H   0  0  0  0  0  0  0  0  0  0  0  0
   28.7103    7.5245   12.8902 H   0  0  0  0  0  0  0  0  0  0  0  0
   29.3145    6.6734   14.3168 H   0  0  0  0  0  0  0  0  0  0  0  0
   30.1612   11.8803   14.3842 H   0  0  0  0  0  0  0  0  0  0  0  0
   28.3792   11.3967   18.2849 H   0  0  0  0  0  0  0  0  0  0  0  0
   27.0935   13.4752   17.9742 H   0  0  0  0  0  0  0  0  0  0  0  0
   26.4897   15.4023   16.5879 H   0  0  0  0  0  0  0  0  0  0  0  0
   28.2554   15.8829   12.6962 H   0  0  0  0  0  0  0  0  0  0  0  0
   29.5534   13.8081   13.0057 H   0  0  0  0  0  0  0  0  0  0  0  0
   17.6386    7.6249   10.5385 H   0  0  0  0  0  0  0  0  0  0  0  0
  1  2  2  0  0  0  0
  1  5  1  0  0  0  0
  1 62  1  0  0  0  0
  2  3  1  0  0  0  0
  2 35  1  0  0  0  0
  3  6  2  0  0  0  0
  3 36  1  0  0  0  0
  4  6  1  0  0  0  0
  4  5  2  0  0  0  0
  4 37  1  0  0  0  0
  5 38  1  0  0  0  0
  6  7  1  0  0  0  0
  7  8  1  0  0  0  0
  7 11  1  0  0  0  0
  8  9  1  0  0  0  0
  8 39  1  0  0  0  0
  8 40  1  0  0  0  0
  9 12  1  0  0  0  0
  9 41  1  0  0  0  0
  9 42  1  0  0  0  0
 10 12  1  0  0  0  0
 10 11  1  0  0  0  0
 10 43  1  0  0  0  0
 10 44  1  0  0  0  0
 11 45  1  0  0  0  0
 11 46  1  0  0  0  0
 12 13  1  0  0  0  0
 12 47  1  0  0  0  0
 13 14  2  0  0  0  0
 13 15  1  0  0  0  0
 15 16  1  0  0  0  0
 15 19  1  0  0  0  0
 16 17  1  0  0  0  0
 16 48  1  0  0  0  0
 16 49  1  0  0  0  0
 17 20  1  0  0  0  0
 17 50  1  0  0  0  0
 17 51  1  0  0  0  0
 18 20  1  0  0  0  0
 18 19  1  0  0  0  0
 18 52  1  0  0  0  0
 18 53  1  0  0  0  0
 19 54  1  0  0  0  0
 19 55  1  0  0  0  0
 20 21  1  0  0  0  0
 21 22  2  0  0  0  0
 21 23  2  0  0  0  0
 21 24  1  0  0  0  0
 24 25  2  0  0  0  0
 24 26  1  0  0  0  0
 25 28  1  0  0  0  0
 25 56  1  0  0  0  0
 26 27  2  0  0  0  0
 26 57  1  0  0  0  0
 27 29  1  0  0  0  0
 27 58  1  0  0  0  0
 28 29  2  0  0  0  0
 28 32  1  0  0  0  0
 29 30  1  0  0  0  0
 30 33  2  0  0  0  0
 30 59  1  0  0  0  0
 31 33  1  0  0  0  0
 31 32  2  0  0  0  0
 31 60  1  0  0  0  0
 32 61  1  0  0  0  0
 33 34  1  0  0  0  0
M  CHG  1   1   1
M  END
$$$$
