ZEN
 OpenBabel04041916393D

 62 66  0  0  0  0  0  0  0  0999 V2000
   18.2235   50.5579   59.9172 N   0  3  0  0  0  0  0  0  0  0  0  0
   17.9395   50.9904   61.1533 C   0  0  0  0  0  0  0  0  0  0  0  0
   16.7929   50.5475   61.7972 C   0  0  0  0  0  0  0  0  0  0  0  0
   16.2754   49.2356   59.8948 C   0  0  0  0  0  0  0  0  0  0  0  0
   17.4274   49.7005   59.2793 C   0  0  0  0  0  0  0  0  0  0  0  0
   15.9006   49.6484   61.1849 C   0  0  0  0  0  0  0  0  0  0  0  0
   14.7411   49.2246   61.8022 N   0  0  0  0  0  0  0  0  0  0  0  0
   14.4068   49.5198   63.2086 C   0  0  0  0  0  0  0  0  0  0  0  0
   13.0346   50.1748   63.3054 C   0  0  0  0  0  0  0  0  0  0  0  0
   12.3825   49.1170   61.1497 C   0  0  0  0  0  0  0  0  0  0  0  0
   13.7285   48.4053   61.1041 C   0  0  0  0  0  0  0  0  0  0  0  0
   11.9509   49.3469   62.5999 C   0  0  0  0  0  0  0  0  0  0  0  0
   10.6185   50.0897   62.6438 C   0  0  0  0  0  0  0  0  0  0  0  0
   10.5971   51.2968   62.8896 O   0  0  0  0  0  0  0  0  0  0  0  0
    9.4620   49.3961   62.3434 N   0  0  0  0  0  0  0  0  0  0  0  0
    9.3501   47.9598   62.0380 C   0  0  0  0  0  0  0  0  0  0  0  0
    8.5726   47.7249   60.7337 C   0  0  0  0  0  0  0  0  0  0  0  0
    7.4639   49.9151   60.9825 C   0  0  0  0  0  0  0  0  0  0  0  0
    8.1860   50.1331   62.3198 C   0  0  0  0  0  0  0  0  0  0  0  0
    7.2802   48.4568   60.7582 N   0  0  0  0  0  0  0  0  0  0  0  0
    6.1370   47.9929   59.6001 S   0  0  0  0  0  0  0  0  0  0  0  0
    5.0264   48.9158   59.6708 O   0  0  0  0  0  0  0  0  0  0  0  0
    5.9460   46.5653   59.7502 O   0  0  0  0  0  0  0  0  0  0  0  0
    6.9718   48.2588   58.0439 C   0  0  0  0  0  0  0  0  0  0  0  0
    6.9508   49.5206   57.4397 C   0  0  0  0  0  0  0  0  0  0  0  0
    7.5652   47.1732   57.3934 C   0  0  0  0  0  0  0  0  0  0  0  0
    8.1480   47.3508   56.1375 C   0  0  0  0  0  0  0  0  0  0  0  0
    7.5354   49.7081   56.1734 C   0  0  0  0  0  0  0  0  0  0  0  0
    8.1393   48.6081   55.5149 C   0  0  0  0  0  0  0  0  0  0  0  0
    8.7165   48.7882   54.2484 C   0  0  0  0  0  0  0  0  0  0  0  0
    8.1097   51.1271   54.2766 C   0  0  0  0  0  0  0  0  0  0  0  0
    7.5275   50.9614   55.5359 C   0  0  0  0  0  0  0  0  0  0  0  0
    8.7018   50.0419   53.6399 C   0  0  0  0  0  0  0  0  0  0  0  0
    9.4326   50.2434   52.0945 Cl  0  0  0  0  0  0  0  0  0  0  0  0
   18.6393   51.6938   61.6072 H   0  0  0  0  0  0  0  0  0  0  0  0
   16.6205   50.9473   62.7899 H   0  0  0  0  0  0  0  0  0  0  0  0
   15.6844   48.5278   59.3236 H   0  0  0  0  0  0  0  0  0  0  0  0
   17.7195   49.3969   58.2776 H   0  0  0  0  0  0  0  0  0  0  0  0
   15.1134   50.1920   63.6947 H   0  0  0  0  0  0  0  0  0  0  0  0
   14.4291   48.5939   63.7957 H   0  0  0  0  0  0  0  0  0  0  0  0
   13.0898   51.1778   62.8603 H   0  0  0  0  0  0  0  0  0  0  0  0
   12.7681   50.3176   64.3596 H   0  0  0  0  0  0  0  0  0  0  0  0
   12.4570   50.0801   60.6259 H   0  0  0  0  0  0  0  0  0  0  0  0
   11.6486   48.5298   60.5912 H   0  0  0  0  0  0  0  0  0  0  0  0
   13.6586   47.4156   61.5722 H   0  0  0  0  0  0  0  0  0  0  0  0
   13.9462   48.2279   60.0513 H   0  0  0  0  0  0  0  0  0  0  0  0
   11.8530   48.3943   63.1344 H   0  0  0  0  0  0  0  0  0  0  0  0
    8.8435   47.4755   62.8806 H   0  0  0  0  0  0  0  0  0  0  0  0
   10.3294   47.4927   61.9452 H   0  0  0  0  0  0  0  0  0  0  0  0
    8.4123   46.6515   60.6010 H   0  0  0  0  0  0  0  0  0  0  0  0
    9.1659   48.0974   59.8906 H   0  0  0  0  0  0  0  0  0  0  0  0
    6.5000   50.4313   61.0123 H   0  0  0  0  0  0  0  0  0  0  0  0
    8.0644   50.3303   60.1659 H   0  0  0  0  0  0  0  0  0  0  0  0
    8.3416   51.2066   62.4664 H   0  0  0  0  0  0  0  0  0  0  0  0
    7.5727   49.7746   63.1553 H   0  0  0  0  0  0  0  0  0  0  0  0
    6.4673   50.3550   57.9443 H   0  0  0  0  0  0  0  0  0  0  0  0
    7.5643   46.1828   57.8449 H   0  0  0  0  0  0  0  0  0  0  0  0
    8.5957   46.4941   55.6359 H   0  0  0  0  0  0  0  0  0  0  0  0
    9.1766   47.9497   53.7302 H   0  0  0  0  0  0  0  0  0  0  0  0
    8.0925   52.1050   53.7979 H   0  0  0  0  0  0  0  0  0  0  0  0
    7.0604   51.8199   56.0161 H   0  0  0  0  0  0  0  0  0  0  0  0
   19.0678   50.9017   59.4567 H   0  0  0  0  0  0  0  0  0  0  0  0
  1  2  2  0  0  0  0
  1  5  1  0  0  0  0
  1 62  1  0  0  0  0
  2  3  1  0  0  0  0
  2 35  1  0  0  0  0
  3  6  2  0  0  0  0
  3 36  1  0  0  0  0
  4  6  1  0  0  0  0
  4  5  2  0  0  0  0
  4 37  1  0  0  0  0
  5 38  1  0  0  0  0
  6  7  1  0  0  0  0
  7  8  1  0  0  0  0
  7 11  1  0  0  0  0
  8  9  1  0  0  0  0
  8 39  1  0  0  0  0
  8 40  1  0  0  0  0
  9 12  1  0  0  0  0
  9 41  1  0  0  0  0
  9 42  1  0  0  0  0
 10 12  1  0  0  0  0
 10 11  1  0  0  0  0
 10 43  1  0  0  0  0
 10 44  1  0  0  0  0
 11 45  1  0  0  0  0
 11 46  1  0  0  0  0
 12 13  1  0  0  0  0
 12 47  1  0  0  0  0
 13 14  2  0  0  0  0
 13 15  1  0  0  0  0
 15 16  1  0  0  0  0
 15 19  1  0  0  0  0
 16 17  1  0  0  0  0
 16 48  1  0  0  0  0
 16 49  1  0  0  0  0
 17 20  1  0  0  0  0
 17 50  1  0  0  0  0
 17 51  1  0  0  0  0
 18 20  1  0  0  0  0
 18 19  1  0  0  0  0
 18 52  1  0  0  0  0
 18 53  1  0  0  0  0
 19 54  1  0  0  0  0
 19 55  1  0  0  0  0
 20 21  1  0  0  0  0
 21 22  2  0  0  0  0
 21 23  2  0  0  0  0
 21 24  1  0  0  0  0
 24 25  2  0  0  0  0
 24 26  1  0  0  0  0
 25 28  1  0  0  0  0
 25 56  1  0  0  0  0
 26 27  2  0  0  0  0
 26 57  1  0  0  0  0
 27 29  1  0  0  0  0
 27 58  1  0  0  0  0
 28 29  2  0  0  0  0
 28 32  1  0  0  0  0
 29 30  1  0  0  0  0
 30 33  2  0  0  0  0
 30 59  1  0  0  0  0
 31 33  1  0  0  0  0
 31 32  2  0  0  0  0
 31 60  1  0  0  0  0
 32 61  1  0  0  0  0
 33 34  1  0  0  0  0
M  CHG  1   1   1
M  END
$$$$
