3RLR_3RR_A_901
 OpenBabel03301717223D

 35 37  0  0  0  0  0  0  0  0999 V2000
   17.4237   -1.8956   49.6110 N   0  0  0  0  0  0  0  0  0  0  0  0
   17.2717    0.3865   48.8636 N   0  3  0  0  0  0  0  0  0  0  0  0
   15.5919   -0.3564   50.1526 C   0  0  0  0  0  0  0  0  0  0  0  0
   15.3574    1.0240   49.8015 C   0  0  0  0  0  0  0  0  0  0  0  0
   16.4078    1.4505   49.0014 C   0  0  0  0  0  0  0  0  0  0  0  0
   17.3680   -4.1795   50.4791 C   0  0  0  0  0  0  0  0  0  0  0  0
   13.6717   -1.2804   51.5953 C   0  0  0  0  0  0  0  0  0  0  0  0
   11.2316   -1.0192   51.6231 C   0  0  0  0  0  0  0  0  0  0  0  0
   13.6272   -1.4523   53.0152 C   0  0  0  0  0  0  0  0  0  0  0  0
   14.2592    1.8540   50.1893 C   0  0  0  0  0  0  0  0  0  0  0  0
   12.4170   -1.3998   53.7394 C   0  0  0  0  0  0  0  0  0  0  0  0
   12.4453   -1.0679   50.9180 C   0  0  0  0  0  0  0  0  0  0  0  0
   11.2215   -1.1862   53.0177 C   0  0  0  0  0  0  0  0  0  0  0  0
   14.9659   -1.3894   50.8917 C   0  0  0  0  0  0  0  0  0  0  0  0
   16.7998   -0.7027   49.5505 C   0  0  0  0  0  0  0  0  0  0  0  0
   16.7585   -2.8090   50.3426 C   0  0  0  0  0  0  0  0  0  0  0  0
   16.6854    2.7564   48.3532 C   0  0  0  0  0  0  0  0  0  0  0  0
   13.4677   -1.7520   55.8957 C   0  0  0  0  0  0  0  0  0  0  0  0
   13.3605    2.5208   50.5399 N   0  0  0  0  0  0  0  0  0  0  0  0
   15.5831   -2.6059   50.9765 N   0  0  0  0  0  0  0  0  0  0  0  0
   12.2993   -1.5399   55.1038 O   0  0  0  0  0  0  0  0  0  0  0  0
   12.3683   -0.8544   49.1916 Cl  0  0  0  0  0  0  0  0  0  0  0  0
    9.6798   -1.1241   53.8176 Cl  0  0  0  0  0  0  0  0  0  0  0  0
   18.1337    0.4028   48.3316 H   0  0  0  0  0  0  0  0  0  0  0  0
   18.3176   -4.2327   49.9342 H   0  0  0  0  0  0  0  0  0  0  0  0
   16.6897   -4.9401   50.0728 H   0  0  0  0  0  0  0  0  0  0  0  0
   17.5586   -4.4093   51.5350 H   0  0  0  0  0  0  0  0  0  0  0  0
   10.2941   -0.8487   51.0892 H   0  0  0  0  0  0  0  0  0  0  0  0
   14.5693   -1.6226   53.5396 H   0  0  0  0  0  0  0  0  0  0  0  0
   17.6253    2.7124   47.7917 H   0  0  0  0  0  0  0  0  0  0  0  0
   16.7677    3.5435   49.1103 H   0  0  0  0  0  0  0  0  0  0  0  0
   15.8767    3.0140   47.6608 H   0  0  0  0  0  0  0  0  0  0  0  0
   13.1814   -1.8406   56.9570 H   0  0  0  0  0  0  0  0  0  0  0  0
   14.1556   -0.9073   55.8013 H   0  0  0  0  0  0  0  0  0  0  0  0
   13.9676   -2.6792   55.6029 H   0  0  0  0  0  0  0  0  0  0  0  0
  1 15  1  0  0  0  0
  1 16  1  0  0  0  0
  2  5  1  0  0  0  0
  2 15  2  0  0  0  0
  2 24  1  0  0  0  0
  3  4  1  0  0  0  0
  3 14  2  0  0  0  0
  3 15  1  0  0  0  0
  4  5  2  0  0  0  0
  4 10  1  0  0  0  0
  5 17  1  0  0  0  0
  6 16  1  0  0  0  0
  6 25  1  0  0  0  0
  6 26  1  0  0  0  0
  6 27  1  0  0  0  0
  7  9  2  0  0  0  0
  7 12  1  0  0  0  0
  7 14  1  0  0  0  0
  8 12  2  0  0  0  0
  8 13  1  0  0  0  0
  8 28  1  0  0  0  0
  9 11  1  0  0  0  0
  9 29  1  0  0  0  0
 10 19  3  0  0  0  0
 11 13  2  0  0  0  0
 11 21  1  0  0  0  0
 12 22  1  0  0  0  0
 13 23  1  0  0  0  0
 14 20  1  0  0  0  0
 16 20  2  0  0  0  0
 17 30  1  0  0  0  0
 17 31  1  0  0  0  0
 17 32  1  0  0  0  0
 18 21  1  0  0  0  0
 18 33  1  0  0  0  0
 18 34  1  0  0  0  0
 18 35  1  0  0  0  0
M  CHG  1   2   1
M  END
$$$$
