3EKR_PY9_A_901
 OpenBabel03301717163D

 41 43  0  0  1  0  0  0  0  0999 V2000
   17.0162   -3.7288   51.0862 N   0  0  0  0  0  0  0  0  0  0  0  0
   15.2176    0.8617   49.7085 C   0  0  0  0  0  0  0  0  0  0  0  0
   16.5578    0.6465   49.3923 C   0  0  0  0  0  0  0  0  0  0  0  0
   17.0891   -0.6461   49.4449 C   0  0  0  0  0  0  0  0  0  0  0  0
   16.8095   -3.1088   49.8599 C   0  0  0  0  0  0  0  0  0  0  0  0
   16.8888   -3.1490   52.4373 C   0  0  1  0  0  0  0  0  0  0  0  0
   17.8497   -5.3769   52.5871 C   0  0  0  0  0  0  0  0  0  0  0  0
   14.4969   -4.0594   52.5767 C   0  0  0  0  0  0  0  0  0  0  0  0
   12.8154   -3.0859   54.0125 C   0  0  0  0  0  0  0  0  0  0  0  0
   15.0736   -2.1615   53.9741 C   0  0  0  0  0  0  0  0  0  0  0  0
   13.1872   -4.0405   53.0736 C   0  0  0  0  0  0  0  0  0  0  0  0
   14.9153   -1.5003   50.0936 C   0  0  0  0  0  0  0  0  0  0  0  0
   13.7504   -2.1607   54.4621 C   0  0  0  0  0  0  0  0  0  0  0  0
   14.3906   -0.2027   50.0505 C   0  0  0  0  0  0  0  0  0  0  0  0
   16.2761   -1.7242   49.8230 C   0  0  0  0  0  0  0  0  0  0  0  0
   15.4626   -3.1208   52.9999 C   0  0  0  0  0  0  0  0  0  0  0  0
   17.8342   -4.0216   53.2862 C   0  0  0  0  0  0  0  0  0  0  0  0
   17.6517   -5.0398   51.1192 C   0  0  0  0  0  0  0  0  0  0  0  0
   16.0184   -1.1238   54.5238 C   0  0  0  0  0  0  0  0  0  0  0  0
   17.1137   -3.6290   48.7950 O   0  0  0  0  0  0  0  0  0  0  0  0
   14.7391    2.1387   49.6696 O   0  0  0  0  0  0  0  0  0  0  0  0
   18.4149   -0.7753   49.1272 O   0  0  0  0  0  0  0  0  0  0  0  0
   17.1906    1.4831   49.1097 H   0  0  0  0  0  0  0  0  0  0  0  0
   17.2631   -2.1209   52.3957 H   0  0  0  0  0  0  0  0  0  0  0  0
   17.0261   -6.0014   52.9487 H   0  0  0  0  0  0  0  0  0  0  0  0
   18.7809   -5.9288   52.7610 H   0  0  0  0  0  0  0  0  0  0  0  0
   14.7525   -4.8208   51.8427 H   0  0  0  0  0  0  0  0  0  0  0  0
   11.8021   -3.0701   54.4061 H   0  0  0  0  0  0  0  0  0  0  0  0
   12.4536   -4.7750   52.7242 H   0  0  0  0  0  0  0  0  0  0  0  0
   14.2613   -2.3302   50.3304 H   0  0  0  0  0  0  0  0  0  0  0  0
   13.4421   -1.4226   55.2033 H   0  0  0  0  0  0  0  0  0  0  0  0
   13.3419   -0.0457   50.2851 H   0  0  0  0  0  0  0  0  0  0  0  0
   17.5408   -4.1128   54.3370 H   0  0  0  0  0  0  0  0  0  0  0  0
   18.8513   -3.6073   53.2604 H   0  0  0  0  0  0  0  0  0  0  0  0
   18.6094   -5.0136   50.5819 H   0  0  0  0  0  0  0  0  0  0  0  0
   17.0039   -5.7686   50.6218 H   0  0  0  0  0  0  0  0  0  0  0  0
   15.5200   -0.4800   55.2630 H   0  0  0  0  0  0  0  0  0  0  0  0
   16.3810   -0.4667   53.7294 H   0  0  0  0  0  0  0  0  0  0  0  0
   16.8626   -1.5960   55.0349 H   0  0  0  0  0  0  0  0  0  0  0  0
   13.7955    2.1335   49.9113 H   0  0  0  0  0  0  0  0  0  0  0  0
   18.6518   -1.7206   49.0874 H   0  0  0  0  0  0  0  0  0  0  0  0
  1  5  1  0  0  0  0
  1  6  1  0  0  0  0
  1 18  1  0  0  0  0
  2  3  2  0  0  0  0
  2 14  1  0  0  0  0
  2 21  1  0  0  0  0
  3  4  1  0  0  0  0
  3 23  1  0  0  0  0
  4 15  2  0  0  0  0
  4 22  1  0  0  0  0
  5 15  1  0  0  0  0
  5 20  2  0  0  0  0
  6 16  1  0  0  0  0
  6 17  1  0  0  0  0
  6 24  1  6  0  0  0
  7 17  1  0  0  0  0
  7 18  1  0  0  0  0
  7 25  1  0  0  0  0
  7 26  1  0  0  0  0
  8 11  2  0  0  0  0
  8 16  1  0  0  0  0
  8 27  1  0  0  0  0
  9 11  1  0  0  0  0
  9 13  2  0  0  0  0
  9 28  1  0  0  0  0
 10 13  1  0  0  0  0
 10 16  2  0  0  0  0
 10 19  1  0  0  0  0
 11 29  1  0  0  0  0
 12 14  2  0  0  0  0
 12 15  1  0  0  0  0
 12 30  1  0  0  0  0
 13 31  1  0  0  0  0
 14 32  1  0  0  0  0
 17 33  1  0  0  0  0
 17 34  1  0  0  0  0
 18 35  1  0  0  0  0
 18 36  1  0  0  0  0
 19 37  1  0  0  0  0
 19 38  1  0  0  0  0
 19 39  1  0  0  0  0
 21 40  1  0  0  0  0
 22 41  1  0  0  0  0
M  END
$$$$
