2CCS_4BH_A_1224
 OpenBabel03301717013D

 36 38  0  0  0  0  0  0  0  0999 V2000
   33.4248   12.3506   23.1075 Cl  0  0  0  0  0  0  0  0  0  0  0  0
   31.8727   11.7685   23.5897 C   0  0  0  0  0  0  0  0  0  0  0  0
   30.7351   12.0061   22.8289 C   0  0  0  0  0  0  0  0  0  0  0  0
   30.8534   12.6971   21.6551 O   0  0  0  0  0  0  0  0  0  0  0  0
   29.4965   11.5088   23.2427 C   0  0  0  0  0  0  0  0  0  0  0  0
   29.4097   10.7512   24.4133 C   0  0  0  0  0  0  0  0  0  0  0  0
   28.1689   10.2579   24.7171 O   0  0  0  0  0  0  0  0  0  0  0  0
   31.7883   10.9952   24.7486 C   0  0  0  0  0  0  0  0  0  0  0  0
   30.5533   10.4696   25.1689 C   0  0  0  0  0  0  0  0  0  0  0  0
   30.5423    9.5205   26.2768 C   0  0  0  0  0  0  0  0  0  0  0  0
   29.7565    9.6228   27.3995 N   0  3  0  0  0  0  0  0  0  0  0  0
   29.9109    8.6022   28.2621 N   0  0  0  0  0  0  0  0  0  0  0  0
   30.8879    7.8658   27.7144 C   0  0  0  0  0  0  0  0  0  0  0  0
   31.3015    8.3879   26.4790 C   0  0  0  0  0  0  0  0  0  0  0  0
   32.2685    7.9227   25.6371 N   0  0  0  0  0  0  0  0  0  0  0  0
   31.8155    7.3625   24.3452 C   0  0  0  0  0  0  0  0  0  0  0  0
   32.9802    7.1793   23.3614 C   0  0  0  0  0  0  0  0  0  0  0  0
   33.4862    7.3755   26.2575 C   0  0  0  0  0  0  0  0  0  0  0  0
   34.6175    7.1991   25.2358 C   0  0  0  0  0  0  0  0  0  0  0  0
   34.1253    6.4583   24.0231 N   0  3  0  0  0  0  0  0  0  0  0  0
   29.9797   12.8226   21.2518 H   0  0  0  0  0  0  0  0  0  0  0  0
   28.6018   11.6733   22.6525 H   0  0  0  0  0  0  0  0  0  0  0  0
   28.1989    9.6850   25.5043 H   0  0  0  0  0  0  0  0  0  0  0  0
   32.6940   10.7687   25.3060 H   0  0  0  0  0  0  0  0  0  0  0  0
   29.0711   10.3384   27.6257 H   0  0  0  0  0  0  0  0  0  0  0  0
   31.2163    6.9728   28.2205 H   0  0  0  0  0  0  0  0  0  0  0  0
   31.0916    8.0327   23.8681 H   0  0  0  0  0  0  0  0  0  0  0  0
   31.3064    6.4029   24.5036 H   0  0  0  0  0  0  0  0  0  0  0  0
   33.3689    8.1453   23.0220 H   0  0  0  0  0  0  0  0  0  0  0  0
   32.6800    6.5819   22.4956 H   0  0  0  0  0  0  0  0  0  0  0  0
   33.2794    6.4224   26.7607 H   0  0  0  0  0  0  0  0  0  0  0  0
   33.8408    8.0840   27.0176 H   0  0  0  0  0  0  0  0  0  0  0  0
   35.4436    6.6202   25.6591 H   0  0  0  0  0  0  0  0  0  0  0  0
   34.9910    8.1671   24.8851 H   0  0  0  0  0  0  0  0  0  0  0  0
   34.8953    6.3515   23.3513 H   0  0  0  0  0  0  0  0  0  0  0  0
   33.8277    5.5116   24.2922 H   0  0  0  0  0  0  0  0  0  0  0  0
  1  2  1  0  0  0  0
  2  3  2  0  0  0  0
  2  8  1  0  0  0  0
  3  4  1  0  0  0  0
  3  5  1  0  0  0  0
  4 21  1  0  0  0  0
  5  6  2  0  0  0  0
  5 22  1  0  0  0  0
  6  7  1  0  0  0  0
  6  9  1  0  0  0  0
  7 23  1  0  0  0  0
  8  9  2  0  0  0  0
  8 24  1  0  0  0  0
  9 10  1  0  0  0  0
 10 11  2  0  0  0  0
 10 14  1  0  0  0  0
 11 12  1  0  0  0  0
 11 25  1  0  0  0  0
 12 13  1  0  0  0  0
 13 14  2  0  0  0  0
 13 26  1  0  0  0  0
 14 15  1  0  0  0  0
 15 16  1  0  0  0  0
 15 18  1  0  0  0  0
 16 17  1  0  0  0  0
 16 27  1  0  0  0  0
 16 28  1  0  0  0  0
 17 20  1  0  0  0  0
 17 29  1  0  0  0  0
 17 30  1  0  0  0  0
 18 19  1  0  0  0  0
 18 31  1  0  0  0  0
 18 32  1  0  0  0  0
 19 20  1  0  0  0  0
 19 33  1  0  0  0  0
 19 34  1  0  0  0  0
 20 35  1  0  0  0  0
 20 36  1  0  0  0  0
M  CHG  2  11   1  20   1
M  END
$$$$
