4L91_X29_A_301
 OpenBabel03301717313D

 26 28  0  0  0  0  0  0  0  0999 V2000
  -29.0766   14.5276   25.1610 C   0  0  0  0  0  0  0  0  0  0  0  0
  -27.7933   14.0780   24.6318 C   0  0  0  0  0  0  0  0  0  0  0  0
  -27.6942   12.9647   23.8796 C   0  0  0  0  0  0  0  0  0  0  0  0
  -30.1806   13.8036   24.8969 C   0  0  0  0  0  0  0  0  0  0  0  0
  -30.0673   12.6497   24.1209 N   0  3  0  0  0  0  0  0  0  0  0  0
  -28.8612   12.2062   23.5936 C   0  0  0  0  0  0  0  0  0  0  0  0
  -29.0523   11.1002   22.9148 N   0  0  0  0  0  0  0  0  0  0  0  0
  -30.3885   10.7854   22.9990 N   0  0  0  0  0  0  0  0  0  0  0  0
  -30.9974   11.7022   23.7307 C   0  0  0  0  0  0  0  0  0  0  0  0
  -29.1118   16.0805   26.1852 Br  0  0  0  0  0  0  0  0  0  0  0  0
  -32.3867   11.6341   24.1700 C   0  0  0  0  0  0  0  0  0  0  0  0
  -33.4576   12.0070   23.3429 C   0  0  0  0  0  0  0  0  0  0  0  0
  -34.7800   11.8175   23.7523 C   0  0  0  0  0  0  0  0  0  0  0  0
  -35.0319   11.2678   25.0061 C   0  0  0  0  0  0  0  0  0  0  0  0
  -33.9792   10.9105   25.8491 C   0  0  0  0  0  0  0  0  0  0  0  0
  -32.6611   11.0851   25.4323 C   0  0  0  0  0  0  0  0  0  0  0  0
  -36.3400   11.0927   25.3661 O   0  0  0  0  0  0  0  0  0  0  0  0
  -33.2048   12.5713   22.1225 O   0  0  0  0  0  0  0  0  0  0  0  0
  -34.2933   10.2397   27.4047 Cl  0  0  0  0  0  0  0  0  0  0  0  0
  -26.9034   14.6596   24.8574 H   0  0  0  0  0  0  0  0  0  0  0  0
  -26.7427   12.6219   23.4884 H   0  0  0  0  0  0  0  0  0  0  0  0
  -31.1651   14.0692   25.2588 H   0  0  0  0  0  0  0  0  0  0  0  0
  -35.6176   12.0825   23.1144 H   0  0  0  0  0  0  0  0  0  0  0  0
  -31.8432   10.7689   26.0763 H   0  0  0  0  0  0  0  0  0  0  0  0
  -36.3461   10.6679   26.2450 H   0  0  0  0  0  0  0  0  0  0  0  0
  -34.0336   12.6401   21.6216 H   0  0  0  0  0  0  0  0  0  0  0  0
  1  2  2  0  0  0  0
  1  4  1  0  0  0  0
  1 10  1  0  0  0  0
  2  3  1  0  0  0  0
  2 20  1  0  0  0  0
  3  6  2  0  0  0  0
  3 21  1  0  0  0  0
  4  5  2  0  0  0  0
  4 22  1  0  0  0  0
  5  6  1  0  0  0  0
  5  9  1  0  0  0  0
  6  7  1  0  0  0  0
  7  8  1  0  0  0  0
  8  9  2  0  0  0  0
  9 11  1  0  0  0  0
 11 12  2  0  0  0  0
 11 16  1  0  0  0  0
 12 13  1  0  0  0  0
 12 18  1  0  0  0  0
 13 14  2  0  0  0  0
 13 23  1  0  0  0  0
 14 15  1  0  0  0  0
 14 17  1  0  0  0  0
 15 16  2  0  0  0  0
 15 19  1  0  0  0  0
 16 24  1  0  0  0  0
 17 25  1  0  0  0  0
 18 26  1  0  0  0  0
M  CHG  1   5   1
M  END
$$$$
